   Input file: C:\Users\jorgeft\Desktop\master thesis\selected_values\simulation4.pqi
  Output file: C:\Users\jorgeft\Desktop\master thesis\selected_values\simulation4.pqo
Database file: C:\Program Files (x86)\USGS\Phreeqc Interactive 3.4.0-12927\database\llnl.dat

------------------
Reading data base.
------------------

	LLNL_AQUEOUS_MODEL_PARAMETERS
	NAMED_EXPRESSIONS
	SOLUTION_MASTER_SPECIES
	SOLUTION_SPECIES
	PHASES
	EXCHANGE_MASTER_SPECIES
	EXCHANGE_SPECIES
	SURFACE_MASTER_SPECIES
	SURFACE_SPECIES
	RATES
	END
------------------------------------
Reading input data for simulation 1.
------------------------------------

	DATABASE C:\Program Files (x86)\USGS\Phreeqc Interactive 3.4.0-12927\database\llnl.dat
	USER_PUNCH 1
	headings Sample_Ref	EC_(uS/cm) TDS_g/kg-solution alk_mg/L
	start
	10 PUNCH Description
	25 PUNCH SC
	32 PUNCH (RHO * SOLN_VOL - TOT("water")) * 1000 / (RHO * SOLN_VOL)
	40 PUNCH alk * ((50.05) / 1000)
	end
	SELECTED_OUTPUT 1
	file simulation4.txt
	charge_balance
	ionic_strength
	temperature
	percent_error
	alkalinity
	totals	Na	K	Mg	Ca	F	Cl	S(+6)	Br	N(+5)	P(5) 	Al	V	Cr	Mn	Fe	Cu	Zn	Ga	As	Si
	molalities OH- HCO3- # add here other aqueous species of interest
	saturation_indices Fe(OH)2 Fe(OH)3 Gibbsite Goethite Pyrolusite Kaolinite Diaspore Magnetite Boehmite Cuprite
	END
------------------
End of simulation.
------------------

------------------------------------
Reading input data for simulation 2.
------------------------------------

	SOLUTION_SPREAD
	units mg/l
	Number 	Description	pH	pe	Temp	Na	K	Mg	Ca	F	Cl	S(+6)	Br	N(+5)	P(5) 	Al	V	Cr	Mn	Fe	Cu	Zn	Ga	As	Si
	1	1WBR1	11.98 charge	4	25.6	4.466E+02	1.016E+00	2.989E-04	7.263E+01	1.176E+00	3.264E+00	0.000E+00	0.000E+00	7.149E-01	0.000E+00	1.345E+02	5.041E-01	5.775E-02	6.179E-03	3.164E-05	1.263E-01	7.538E-02	1.853E-01	1.191E-02	2.13E-01
	2	1WBRA2	11.76 charge	4	25.6	4.305E+02	3.910E+00	2.989E-04	5.956E+01	5.423E-01	9.857E+00	0.000E+00	0.000E+00	7.416E-01	0.000E+00	1.008E+02	8.033E-01	8.434E-02	4.598E-05	7.710E-01	3.650E-02	1.114E-02	1.549E-01	3.148E-02	1.26E+01
	3	1WBRS1	11.93 charge	4	29.3	4.479E+02	9.758E-01	2.989E-04	5.678E+01	1.489E+00	3.110E+00	0.000E+00	0.000E+00	3.200E+00	0.000E+00	1.303E+02	8.851E-01	4.984E-02	4.598E-05	2.602E-02	6.330E-03	9.077E-03	1.927E-01	3.106E-02	1.69E+01
	4	1WBRG2 	10.92 charge	4	30.2	7.317E+02	1.526E+00	3.778E-02	5.092E+02	4.666E-01	4.188E+00	7.585E+00	0.000E+00	7.131E-01	0.000E+00	2.312E-01	1.404E-01	4.518E-02	4.598E-05	2.473E-01	2.249E-02	1.791E-02	2.140E-02	3.145E-05	1.05E+00
	5	2WBR1	11.82 charge	4	29.8	2.411E+02	5.526E-01	2.989E-04	3.652E+01	6.388E-01	2.062E+00	0.000E+00	0.000E+00	7.031E-01	0.000E+00	6.291E+01	3.541E-01	2.387E-02	4.598E-05	3.164E-05	4.628E-03	9.593E-03	5.921E-02	9.287E-03	2.00E+00
	6	2WBRA1	11.54 charge	4	30.1	2.695E+02	2.429E+00	2.989E-04	4.438E+01	3.151E+00	2.970E+00	0.000E+00	3.374E+00	7.437E-01	0.000E+00	6.661E+01	5.566E-01	4.852E-02	6.018E-03	2.293E+00	9.681E-02	5.025E-02	6.954E-02	2.424E-02	8.96E+00
	7	2WBRS1 	11.76 charge	4	30.1	2.222E+02	6.034E-01	3.074E-02	4.074E+01	6.606E-01	2.205E+00	0.000E+00	0.000E+00	7.062E-01	0.000E+00	5.003E+01	5.876E-01	1.405E-02	4.598E-05	8.930E-01	4.000E-03	6.701E-03	4.195E-02	2.754E-02	1.08E+01
	8	2WBRG1	10.94 charge	4	29.6	2.856E+02	6.873E-01	3.599E-02	4.981E+02	5.377E-01	2.058E+00	5.151E+00	0.000E+00	7.048E-01	0.000E+00	8.083E-02	1.400E-01	1.164E-02	4.598E-05	2.619E-01	6.767E-03	1.588E-02	1.259E-02	3.145E-05	1.03E+01
	9	3WBR2	11.69 charge	4	30.2	1.558E+02	4.365E-01	2.989E-04	3.865E+01	3.706E-01	1.772E+00	0.000E+00	0.000E+00	7.677E-01	0.000E+00	3.401E+01	3.290E-01	2.505E-02	6.990E-03	6.816E-02	1.293E-01	7.041E-02	1.835E-02	3.145E-05	1.15E+01
	10	3WBRA2	11.33 charge	4	29.6	1.674E+02	1.425E+00	4.053E-02	3.938E+01	4.710E-01	2.153E+00	0.000E+00	3.506E+00	9.940E-01	0.000E+00	3.634E+01	3.900E-01	4.029E-02	6.621E-03	1.002E+01	1.029E-02	2.066E-02	3.030E-02	1.754E-02	1.23E+01
	11	3WBRS2 	11.61 charge	4	31.4	1.565E+02	4.925E-01	5.958E-02	4.246E+01	3.538E-01	2.560E+00	0.000E+00	0.000E+00	7.920E-01	0.000E+00	3.705E+01	3.459E-01	2.246E-02	4.598E-05	3.425E+00	7.798E-03	1.496E-02	1.904E-02	1.686E-02	1.51E-01
	12	3WBRG3 	11.41 charge	4	29.7	1.115E+02	3.457E-01	2.989E-04	9.962E+01	4.344E-01	9.533E+00	5.072E-01	0.000E+00	8.021E-01	1.710E+00	4.304E+00	1.301E-01	4.955E-03	4.598E-05	4.373E-02	4.805E-03	1.232E-02	2.319E-02	3.145E-05	2.24E+01
	13	4WBR2	11.60 charge	4	29.9	1.208E+02	3.831E-01	2.989E-04	2.827E+01	3.398E-01	1.814E+00	0.000E+00	0.000E+00	7.682E-01	0.000E+00	2.532E+01	2.740E-01	6.597E-03	4.823E-03	1.469E-01	9.543E-02	5.282E-02	1.028E-02	9.153E-03	2.50E+01
	14	4WBRA2	11.29 charge	4	29.3	1.159E+02	1.093E+00	1.645E-01	1.577E+01	3.901E-01	2.051E+00	0.000E+00	3.438E+00	7.978E-01	0.000E+00	2.540E+01	2.494E-01	4.258E-02	1.708E-02	1.755E+01	3.138E-02	4.212E-02	2.211E-02	1.740E-02	3.29E+00
	15	4WBRS1 	11.35 charge	4	30.7	1.232E+02	3.781E-01	2.989E-04	2.660E+01	2.959E-01	1.813E+00	0.000E+00	0.000E+00	7.700E-01	0.000E+00	2.600E+01	2.121E-01	1.242E-02	4.598E-05	3.394E+00	2.782E-02	2.112E-02	9.907E-03	9.741E-03	2.11E+01
	16	4WBRG2 	11.55 charge	4	28.1	7.201E+01	2.514E-01	2.989E-04	5.905E+01	2.747E-01	1.525E+00	0.000E+00	0.000E+00	7.647E-01	2.655E+00	1.039E+01	9.965E-02	3.725E-05	6.581E-03	3.164E-05	9.460E-02	6.479E-02	1.967E-02	3.145E-05	1.61E+01
	17	5WBR2	11.52 charge	4	30.4	1.055E+02	3.471E-01	2.989E-04	1.803E+01	3.897E-01	1.605E+00	0.000E+00	3.256E+00	0.000E+00	0.000E+00	2.237E+01	2.348E-01	5.353E-03	4.598E-05	4.892E-01	3.896E-03	9.882E-03	7.873E-03	1.627E-02	2.07E+01
	18	5WBRA2	11.23 charge	4	30.2	9.749E+01	2.800E+00	1.053E-01	1.603E+01	4.317E-01	1.780E+00	0.000E+00	3.279E+00	7.792E-01	0.000E+00	2.156E+01	1.809E-01	4.231E-02	1.700E-02	1.932E+01	9.744E-03	1.216E-01	1.988E-02	1.154E-02	6.74E+00
	19	5WBRS2 	11.32 charge	4	30.9	1.133E+02	2.909E-01	4.357E-02	1.461E+01	4.898E-01	1.821E+00	0.000E+00	3.389E+00	7.768E-01	0.000E+00	2.677E+01	1.508E-01	1.464E-02	4.598E-05	6.748E+00	4.460E-03	2.069E-02	1.113E-02	8.853E-03	2.53E+00
	20	5WBRG2 	11.47 charge	4	30.3	5.698E+01	2.175E-01	2.989E-04	7.428E+01	4.987E-01	1.470E+00	0.000E+00	0.000E+00	7.947E-01	3.935E+00	1.313E+01	7.382E-02	3.725E-05	4.598E-05	3.164E-05	4.835E-03	7.875E-03	1.513E-02	3.145E-05	6.90E-01
	END
-------------------------------------------
Beginning of initial solution calculations.
-------------------------------------------

Initial solution 1.	 1WBR1 

-----------------------------Solution composition------------------------------

	Elements           Molality       Moles

	Al                4.988e-03   4.988e-03
	As                1.591e-07   1.591e-07
	Ca                1.813e-03   1.813e-03
	Cl                9.213e-05   9.213e-05
	Cr                4.983e-07   4.983e-07
	Cu                1.989e-06   1.989e-06
	F                 6.194e-05   6.194e-05
	Fe                5.669e-10   5.669e-10
	Ga                2.659e-06   2.659e-06
	K                 2.600e-05   2.600e-05
	Mg                1.231e-08   1.231e-08
	Mn                1.125e-07   1.125e-07
	N(5)              5.107e-05   5.107e-05
	Na                1.944e-02   1.944e-02
	Si                3.548e-06   3.548e-06
	V                 9.902e-06   9.902e-06
	Zn                1.154e-06   1.154e-06

----------------------------Description of solution----------------------------

                                       pH  =  12.176      Charge balance
                                       pe  =   4.000    
                        Activity of water  =   0.999
                 Ionic strength (mol/kgw)  =   2.443e-02
                       Mass of water (kg)  =   1.000e+00
                 Total alkalinity (eq/kg)  =   3.787e-02
                    Total carbon (mol/kg)  =   0.000e+00
                       Total CO2 (mol/kg)  =   0.000e+00
                         Temperature (°C)  =  25.60
                  Electrical balance (eq)  =  -2.535e-17
 Percent error, 100*(Cat-|An|)/(Cat+|An|)  =  -0.00
                               Iterations  =  23
                                  Total H  = 1.110685e+02
                                  Total O  = 5.555339e+01

----------------------------Distribution of species----------------------------

                                               Log       Log       Log    mole V
   Species          Molality    Activity  Molality  Activity     Gamma   cm³/mol

   OH-             1.761e-02   1.510e-02    -1.754    -1.821    -0.067     (0)  
   H+              7.547e-13   6.669e-13   -12.122   -12.176    -0.054      0.00
   H2O             5.553e+01   9.993e-01     1.744    -0.000     0.000     18.07
Al            4.988e-03
   AlO2-           4.974e-03   4.279e-03    -2.303    -2.369    -0.065     (0)  
   NaAlO2          1.372e-05   1.372e-05    -4.863    -4.863     0.000     (0)  
   HAlO2           8.093e-09   8.093e-09    -8.092    -8.092     0.000     (0)  
   Al(OH)2+        4.152e-15   3.572e-15   -14.382   -14.447    -0.065     (0)  
   AlOH+2          1.792e-21   9.871e-22   -20.747   -21.006    -0.259     (0)  
   AlF2+           7.245e-25   6.232e-25   -24.140   -24.205    -0.065     (0)  
   AlF3            4.131e-25   4.131e-25   -24.384   -24.384     0.000     (0)  
   AlF+2           5.398e-26   2.974e-26   -25.268   -25.527    -0.259     (0)  
   AlF4-           6.350e-27   5.463e-27   -26.197   -26.263    -0.065     (0)  
   Al+3            1.751e-28   5.648e-29   -27.757   -28.248    -0.491     (0)  
   Al2(OH)2+4      1.452e-39   1.461e-40   -38.838   -39.835    -0.997     (0)  
   Al3(OH)4+5      0.000e+00   0.000e+00   -48.394   -49.922    -1.528     (0)  
   Al13O4(OH)24+7   0.000e+00   0.000e+00   -73.339   -76.335    -2.996     (0)  
As(-3)        0.000e+00
   AsH3            0.000e+00   0.000e+00  -167.833  -167.833     0.000     (0)  
As(3)         0.000e+00
   AsO2OH-2        0.000e+00   0.000e+00   -61.495   -61.759    -0.264     (0)  
   H2AsO3-         0.000e+00   0.000e+00   -62.869   -62.934    -0.065     (0)  
   AsO2-           0.000e+00   0.000e+00   -62.889   -62.954    -0.065     (0)  
   HAsO2           0.000e+00   0.000e+00   -65.847   -65.847     0.000     (0)  
   As(OH)3         0.000e+00   0.000e+00   -65.906   -65.906     0.000     (0)  
As(5)         1.591e-07
   AsO3F-2         1.591e-07   8.652e-08    -6.798    -7.063    -0.264     (0)  
   HAsO3F-         4.980e-14   4.284e-14   -13.303   -13.368    -0.065     (0)  
   AsO4-3          3.590e-37   9.093e-38   -36.445   -37.041    -0.596     (0)  
   HAsO4-2         4.283e-38   2.329e-38   -37.368   -37.633    -0.264     (0)  
   H2AsO4-         0.000e+00   0.000e+00   -42.964   -43.030    -0.065     (0)  
   H3AsO4          0.000e+00   0.000e+00   -52.957   -52.957     0.000     (0)  
Ca            1.813e-03
   Ca+2            1.590e-03   9.072e-04    -2.799    -3.042    -0.244     (0)  
   CaOH+           2.232e-04   1.920e-04    -3.651    -3.717    -0.065     (0)  
   CaF+            2.836e-07   2.440e-07    -6.547    -6.613    -0.065     (0)  
   CaNO3+          2.296e-07   1.975e-07    -6.639    -6.704    -0.065     (0)  
   CaCl+           1.758e-08   1.513e-08    -7.755    -7.820    -0.065     (0)  
   CaCl2           1.388e-12   1.388e-12   -11.858   -11.858     0.000     (0)  
Cl(-1)        9.213e-05
   Cl-             9.188e-05   7.850e-05    -4.037    -4.105    -0.068     (0)  
   NaCl            2.311e-07   2.311e-07    -6.636    -6.636     0.000     (0)  
   CaCl+           1.758e-08   1.513e-08    -7.755    -7.820    -0.065     (0)  
   KCl             5.901e-11   5.901e-11   -10.229   -10.229     0.000     (0)  
   CaCl2           1.388e-12   1.388e-12   -11.858   -11.858     0.000     (0)  
   MgCl+           5.207e-13   4.480e-13   -12.283   -12.349    -0.065     (0)  
   Zn(OH)Cl        4.309e-14   4.309e-14   -13.366   -13.366     0.000     (0)  
   MnCl+           1.727e-14   1.485e-14   -13.763   -13.828    -0.065     (0)  
   HCl             1.177e-17   1.177e-17   -16.929   -16.929     0.000     (0)  
   ZnCl+           2.026e-18   1.743e-18   -17.693   -17.759    -0.065     (0)  
   CuCl+           1.507e-19   1.296e-19   -18.822   -18.887    -0.065     (0)  
   CuCl2-          1.601e-20   1.377e-20   -19.796   -19.861    -0.065     (0)  
   ZnCl2           1.583e-22   1.583e-22   -21.801   -21.801     0.000     (0)  
   MnCl3-          2.290e-23   1.970e-23   -22.640   -22.706    -0.065     (0)  
   CuCl3-2         1.277e-23   6.944e-24   -22.894   -23.158    -0.264     (0)  
   CuCl2           5.358e-24   5.358e-24   -23.271   -23.271     0.000     (0)  
   ZnCl3-          7.863e-27   6.764e-27   -26.104   -26.170    -0.065     (0)  
   CrO3Cl-         4.264e-28   3.668e-28   -27.370   -27.436    -0.065     (0)  
   ZnCl4-2         7.351e-30   3.998e-30   -29.134   -29.398    -0.264     (0)  
   FeCl+           2.623e-32   2.257e-32   -31.581   -31.646    -0.065     (0)  
   CuCl4-2         1.139e-36   6.197e-37   -35.943   -36.208    -0.264     (0)  
   FeCl2           9.538e-39   9.538e-39   -38.021   -38.021     0.000     (0)  
   FeCl+2          0.000e+00   0.000e+00   -41.027   -41.285    -0.259     (0)  
   FeCl2+          0.000e+00   0.000e+00   -42.430   -42.495    -0.065     (0)  
   FeCl4-2         0.000e+00   0.000e+00   -45.504   -45.769    -0.264     (0)  
   CrCl+2          0.000e+00   0.000e+00   -47.203   -47.462    -0.259     (0)  
   CrCl2+          0.000e+00   0.000e+00   -51.144   -51.210    -0.065     (0)  
   FeCl4-          0.000e+00   0.000e+00   -53.560   -53.626    -0.065     (0)  
Cl(1)         2.047e-30
   ClO-            2.047e-30   1.761e-30   -29.689   -29.754    -0.065     (0)  
   HClO            4.354e-35   4.354e-35   -34.361   -34.361     0.000     (0)  
Cl(3)         0.000e+00
   ClO2-           0.000e+00   0.000e+00   -48.239   -48.305    -0.065     (0)  
   HClO2           0.000e+00   0.000e+00   -57.311   -57.311     0.000     (0)  
Cl(5)         0.000e+00
   ClO3-           0.000e+00   0.000e+00   -52.963   -53.030    -0.067     (0)  
Cl(7)         0.000e+00
   ClO4-           0.000e+00   0.000e+00   -61.987   -62.053    -0.067     (0)  
   ZnClO4+         0.000e+00   0.000e+00   -74.606   -74.671    -0.065     (0)  
Cr(2)         0.000e+00
   Cr+2            0.000e+00   0.000e+00   -55.427   -55.686    -0.259     (0)  
Cr(3)         1.448e-22
   Cr(OH)4-        1.446e-22   1.244e-22   -21.840   -21.905    -0.065     (0)  
   Cr(OH)3         2.085e-25   2.085e-25   -24.681   -24.681     0.000     (0)  
   Cr(OH)2+        3.228e-29   2.777e-29   -28.491   -28.556    -0.065     (0)  
   CrOH+2          1.686e-35   9.289e-36   -34.773   -35.032    -0.259     (0)  
   Cr+3            0.000e+00   0.000e+00   -42.716   -43.208    -0.491     (0)  
   CrCl+2          0.000e+00   0.000e+00   -47.203   -47.462    -0.259     (0)  
   CrCl2+          0.000e+00   0.000e+00   -51.144   -51.210    -0.065     (0)  
   Cr2(OH)2+4      0.000e+00   0.000e+00   -66.127   -67.124    -0.997     (0)  
   Cr3(OH)4+5      0.000e+00   0.000e+00   -87.543   -89.071    -1.528     (0)  
Cr(5)         5.133e-09
   CrO4-3          5.133e-09   1.300e-09    -8.290    -8.886    -0.596     (0)  
Cr(6)         4.932e-07
   CrO4-2          4.932e-07   2.682e-07    -6.307    -6.572    -0.264     (0)  
   HCrO4-          6.933e-13   5.964e-13   -12.159   -12.224    -0.065     (0)  
   Cr2O7-2         2.151e-23   1.170e-23   -22.667   -22.932    -0.264     (0)  
   H2CrO4          1.877e-26   1.877e-26   -25.727   -25.727     0.000     (0)  
   CrO3Cl-         4.264e-28   3.668e-28   -27.370   -27.436    -0.065     (0)  
Cu(1)         3.923e-17
   Cu+             3.921e-17   3.373e-17   -16.407   -16.472    -0.065     (0)  
   CuCl2-          1.601e-20   1.377e-20   -19.796   -19.861    -0.065     (0)  
   CuCl3-2         1.277e-23   6.944e-24   -22.894   -23.158    -0.264     (0)  
Cu(2)         1.989e-06
   CuO2-2          1.989e-06   1.082e-06    -5.701    -5.966    -0.264     (0)  
   CuOH+           5.423e-11   4.665e-11   -10.266   -10.331    -0.065     (0)  
   Cu+2            1.058e-15   6.036e-16   -14.976   -15.219    -0.244     (0)  
   CuF+            5.855e-19   5.036e-19   -18.233   -18.298    -0.065     (0)  
   CuCl+           1.507e-19   1.296e-19   -18.822   -18.887    -0.065     (0)  
   CuCl2           5.358e-24   5.358e-24   -23.271   -23.271     0.000     (0)  
   CuCl4-2         1.139e-36   6.197e-37   -35.943   -36.208    -0.264     (0)  
F             6.194e-05
   F-              6.140e-05   5.265e-05    -4.212    -4.279    -0.067     (0)  
   CaF+            2.836e-07   2.440e-07    -6.547    -6.613    -0.065     (0)  
   AsO3F-2         1.591e-07   8.652e-08    -6.798    -7.063    -0.264     (0)  
   NaF             9.447e-08   9.447e-08    -7.025    -7.025     0.000     (0)  
   MgF+            1.082e-11   9.309e-12   -10.966   -11.031    -0.065     (0)  
   MnF+            1.442e-13   1.240e-13   -12.841   -12.906    -0.065     (0)  
   HF              5.453e-14   5.453e-14   -13.263   -13.263     0.000     (0)  
   HAsO3F-         4.980e-14   4.284e-14   -13.303   -13.368    -0.065     (0)  
   ZnF+            1.102e-17   9.483e-18   -16.958   -17.023    -0.065     (0)  
   HF2-            8.130e-19   6.994e-19   -18.090   -18.155    -0.065     (0)  
   CuF+            5.855e-19   5.036e-19   -18.233   -18.298    -0.065     (0)  
   AlF2+           7.245e-25   6.232e-25   -24.140   -24.205    -0.065     (0)  
   AlF3            4.131e-25   4.131e-25   -24.384   -24.384     0.000     (0)  
   AlF+2           5.398e-26   2.974e-26   -25.268   -25.527    -0.259     (0)  
   H2F2            7.226e-27   7.226e-27   -26.141   -26.141     0.000     (0)  
   AlF4-           6.350e-27   5.463e-27   -26.197   -26.263    -0.065     (0)  
   VO2F            2.587e-29   2.587e-29   -28.587   -28.587     0.000     (0)  
   FeF+            5.517e-31   4.746e-31   -30.258   -30.324    -0.065     (0)  
   VO2F2-          4.567e-31   3.929e-31   -30.340   -30.406    -0.065     (0)  
   FeF+2           5.577e-37   3.072e-37   -36.254   -36.513    -0.259     (0)  
   FeF2+           3.068e-37   2.639e-37   -36.513   -36.579    -0.065     (0)  
   VOF+            4.520e-40   3.888e-40   -39.345   -39.410    -0.065     (0)  
   VOF2            0.000e+00   0.000e+00   -40.909   -40.909     0.000     (0)  
   SiF6-2          0.000e+00   0.000e+00   -55.783   -56.048    -0.264     (0)  
Fe(2)         1.567e-22
   Fe(OH)3-        1.539e-22   1.324e-22   -21.813   -21.878    -0.065     (0)  
   Fe(OH)2         2.219e-24   2.219e-24   -23.654   -23.654     0.000     (0)  
   Fe(OH)4-2       3.646e-25   1.983e-25   -24.438   -24.703    -0.264     (0)  
   FeOH+           2.167e-25   1.864e-25   -24.664   -24.729    -0.065     (0)  
   Fe+2            6.896e-28   3.935e-28   -27.161   -27.405    -0.244     (0)  
   FeF+            5.517e-31   4.746e-31   -30.258   -30.324    -0.065     (0)  
   FeCl+           2.623e-32   2.257e-32   -31.581   -31.646    -0.065     (0)  
   FeCl2           9.538e-39   9.538e-39   -38.021   -38.021     0.000     (0)  
   FeCl4-2         0.000e+00   0.000e+00   -45.504   -45.769    -0.264     (0)  
Fe(3)         5.669e-10
   Fe(OH)4-        5.656e-10   4.866e-10    -9.247    -9.313    -0.065     (0)  
   Fe(OH)3         1.293e-12   1.293e-12   -11.888   -11.888     0.000     (0)  
   Fe(OH)2+        2.145e-18   1.845e-18   -17.669   -17.734    -0.065     (0)  
   FeOH+2          6.750e-27   3.718e-27   -26.171   -26.430    -0.259     (0)  
   Fe+3            1.192e-36   3.844e-37   -35.924   -36.415    -0.491     (0)  
   FeF+2           5.577e-37   3.072e-37   -36.254   -36.513    -0.259     (0)  
   FeF2+           3.068e-37   2.639e-37   -36.513   -36.579    -0.065     (0)  
   FeNO3+2         3.031e-40   1.670e-40   -39.518   -39.777    -0.259     (0)  
   FeCl+2          0.000e+00   0.000e+00   -41.027   -41.285    -0.259     (0)  
   FeCl2+          0.000e+00   0.000e+00   -42.430   -42.495    -0.065     (0)  
   Fe2(OH)2+4      0.000e+00   0.000e+00   -50.432   -51.429    -0.997     (0)  
   FeCl4-          0.000e+00   0.000e+00   -53.560   -53.626    -0.065     (0)  
   Fe3(OH)4+5      0.000e+00   0.000e+00   -65.315   -66.843    -1.528     (0)  
Ga            2.659e-06
   Ga+3            2.659e-06   7.126e-07    -5.575    -6.147    -0.572     (0)  
H(0)          7.220e-36
   H2              3.610e-36   3.631e-36   -35.443   -35.440     0.003     (0)  
K             2.600e-05
   K+              2.589e-05   2.212e-05    -4.587    -4.655    -0.068     (0)  
   KOH             1.149e-07   1.149e-07    -6.940    -6.940     0.000     (0)  
   KCl             5.901e-11   5.901e-11   -10.229   -10.229     0.000     (0)  
Mg            1.231e-08
   Mg+2            1.229e-08   7.310e-09    -7.910    -8.136    -0.226     (0)  
   MgF+            1.082e-11   9.309e-12   -10.966   -11.031    -0.065     (0)  
   MgCl+           5.207e-13   4.480e-13   -12.283   -12.349    -0.065     (0)  
   Mg4(OH)4+4      2.542e-23   2.559e-24   -22.595   -23.592    -0.997     (0)  
Mn(2)         1.125e-07
   Mn2(OH)3+       3.771e-08   3.244e-08    -7.424    -7.489    -0.065     (0)  
   Mn(OH)3-        2.025e-08   1.742e-08    -7.693    -7.759    -0.065     (0)  
   Mn(OH)2         1.240e-08   1.240e-08    -7.907    -7.907     0.000     (0)  
   MnOH+           3.918e-09   3.371e-09    -8.407    -8.472    -0.065     (0)  
   Mn(OH)4-2       4.065e-10   2.211e-10    -9.391    -9.655    -0.264     (0)  
   Mn+2            1.534e-10   8.753e-11    -9.814   -10.058    -0.244     (0)  
   MnF+            1.442e-13   1.240e-13   -12.841   -12.906    -0.065     (0)  
   MnCl+           1.727e-14   1.485e-14   -13.763   -13.828    -0.065     (0)  
   MnNO3+          7.005e-15   6.026e-15   -14.155   -14.220    -0.065     (0)  
   Mn2OH+3         1.180e-18   3.161e-19   -17.928   -18.500    -0.572     (0)  
   Mn(NO3)2        6.576e-19   6.576e-19   -18.182   -18.182     0.000     (0)  
   MnCl3-          2.290e-23   1.970e-23   -22.640   -22.706    -0.065     (0)  
Mn(3)         9.111e-32
   Mn+3            9.111e-32   2.441e-32   -31.040   -31.612    -0.572     (0)  
Mn(6)         2.442e-15
   MnO4-2          2.442e-15   1.328e-15   -14.612   -14.877    -0.264     (0)  
Mn(7)         7.359e-21
   MnO4-           7.359e-21   6.309e-21   -20.133   -20.200    -0.067     (0)  
N(5)          5.107e-05
   NO3-            5.084e-05   4.344e-05    -4.294    -4.362    -0.068     (0)  
   CaNO3+          2.296e-07   1.975e-07    -6.639    -6.704    -0.065     (0)  
   MnNO3+          7.005e-15   6.026e-15   -14.155   -14.220    -0.065     (0)  
   HNO3            1.537e-18   1.537e-18   -17.813   -17.813     0.000     (0)  
   Mn(NO3)2        6.576e-19   6.576e-19   -18.182   -18.182     0.000     (0)  
   FeNO3+2         3.031e-40   1.670e-40   -39.518   -39.777    -0.259     (0)  
Na            1.944e-02
   Na+             1.938e-02   1.667e-02    -1.713    -1.778    -0.065     (0)  
   NaOH            4.338e-05   4.338e-05    -4.363    -4.363     0.000     (0)  
   NaAlO2          1.372e-05   1.372e-05    -4.863    -4.863     0.000     (0)  
   NaHSiO3         1.250e-06   1.250e-06    -5.903    -5.903     0.000     (0)  
   NaCl            2.311e-07   2.311e-07    -6.636    -6.636     0.000     (0)  
   NaF             9.447e-08   9.447e-08    -7.025    -7.025     0.000     (0)  
O(0)          1.499e-21
   O2              7.495e-22   7.540e-22   -21.125   -21.123     0.003     (0)  
Si            3.548e-06
   HSiO3-          1.871e-06   1.610e-06    -5.728    -5.793    -0.065     (0)  
   NaHSiO3         1.250e-06   1.250e-06    -5.903    -5.903     0.000     (0)  
   H2SiO4-2        4.171e-07   2.269e-07    -6.380    -6.644    -0.264     (0)  
   SiO2            9.217e-09   9.217e-09    -8.035    -8.035     0.000     (0)  
   H4(H2SiO4)4-4   4.791e-19   4.163e-20   -18.320   -19.381    -1.061     (0)  
   H6(H2SiO4)4-2   6.793e-22   3.694e-22   -21.168   -21.432    -0.264     (0)  
   SiF6-2          0.000e+00   0.000e+00   -55.783   -56.048    -0.264     (0)  
V(3)          0.000e+00
   V(OH)2+         0.000e+00   0.000e+00   -43.204   -43.270    -0.065     (0)  
   VOH+2           0.000e+00   0.000e+00   -51.527   -51.786    -0.259     (0)  
   V+3             0.000e+00   0.000e+00   -61.129   -61.701    -0.572     (0)  
   V2(OH)2+4       0.000e+00   0.000e+00  -101.855  -102.852    -0.997     (0)  
V(4)          2.750e-33
   VOOH+           2.750e-33   2.366e-33   -32.561   -32.626    -0.065     (0)  
   VO+2            1.341e-39   7.385e-40   -38.873   -39.132    -0.259     (0)  
   VOF+            4.520e-40   3.888e-40   -39.345   -39.410    -0.065     (0)  
   VOF2            0.000e+00   0.000e+00   -40.909   -40.909     0.000     (0)  
   (VO)2(OH)2+2    0.000e+00   0.000e+00   -60.323   -60.582    -0.259     (0)  
V(5)          9.902e-06
   VO3OH-2         8.823e-06   4.799e-06    -5.054    -5.319    -0.264     (0)  
   HVO4-2          9.231e-07   5.021e-07    -6.035    -6.299    -0.264     (0)  
   VO4-3           1.561e-07   3.954e-08    -6.807    -7.403    -0.596     (0)  
   H2VO4-          4.670e-11   4.017e-11   -10.331   -10.396    -0.065     (0)  
   VO2(OH)2-       2.871e-11   2.470e-11   -10.542   -10.607    -0.065     (0)  
   VO(OH)3         1.647e-19   1.647e-19   -18.783   -18.783     0.000     (0)  
   VO2+            2.552e-28   2.195e-28   -27.593   -27.659    -0.065     (0)  
   VO2F            2.587e-29   2.587e-29   -28.587   -28.587     0.000     (0)  
   VO2F2-          4.567e-31   3.929e-31   -30.340   -30.406    -0.065     (0)  
Zn            1.154e-06
   Zn(OH)3-        7.258e-07   6.244e-07    -6.139    -6.205    -0.065     (0)  
   Zn(OH)4-2       2.933e-07   1.595e-07    -6.533    -6.797    -0.264     (0)  
   Zn(OH)2         1.344e-07   1.344e-07    -6.871    -6.871     0.000     (0)  
   ZnOH+           2.548e-11   2.192e-11   -10.594   -10.659    -0.065     (0)  
   Zn(OH)Cl        4.309e-14   4.309e-14   -13.366   -13.366     0.000     (0)  
   Zn+2            2.235e-14   1.275e-14   -13.651   -13.894    -0.244     (0)  
   ZnF+            1.102e-17   9.483e-18   -16.958   -17.023    -0.065     (0)  
   ZnCl+           2.026e-18   1.743e-18   -17.693   -17.759    -0.065     (0)  
   ZnCl2           1.583e-22   1.583e-22   -21.801   -21.801     0.000     (0)  
   ZnCl3-          7.863e-27   6.764e-27   -26.104   -26.170    -0.065     (0)  
   ZnCl4-2         7.351e-30   3.998e-30   -29.134   -29.398    -0.264     (0)  
   ZnClO4+         0.000e+00   0.000e+00   -74.606   -74.671    -0.065     (0)  

------------------------------Saturation indices-------------------------------

  Phase               SI** log IAP   log K(298 K,   1 atm)

  Afwillite       -12.00     47.86   59.85  Ca3Si2O4(OH)6
  Akermanite       -2.37     42.76   45.13  Ca2MgSi2O7
  Al             -125.45     24.12  149.58  Al
  Al(g)          -176.04     24.12  200.17  Al
  Albite           -8.07     -5.43    2.64  NaAlSi3O8
  Albite_high      -9.38     -5.43    3.95  NaAlSi3O8
  Albite_low       -8.07     -5.43    2.64  NaAlSi3O8
  AlF3            -23.81    -41.08  -17.28  AlF3
  Amesite-14A       6.91     81.91   74.99  Mg4Al4Si2O10(OH)8
  Analcime         -4.49      1.54    6.03  Na.96Al.96Si2.04O6:H2O
  Analcime-dehy   -10.84      1.54   12.38  Na.96Al.96Si2.04O6
  Andalusite       -7.27      8.52   15.80  Al2SiO5
  Andradite         6.96     40.05   33.08  Ca3Fe2(SiO4)3
  Annite          -46.71    -17.47   29.24  KFe3AlSi3O10(OH)2
  Anorthite        -4.57     21.80   26.37  CaAl2(SiO4)2
  Antarcticite    -15.35    -11.25    4.09  CaCl2:6H2O
  Anthophyllite   -17.08     49.22   66.31  Mg7Si8O22(OH)2
  Antigorite       30.67    505.13  474.45  Mg48Si34O85(OH)62
  Arsenolite     -130.41   -150.22  -19.81  As2O3
  As             -101.85    -59.27   42.59  As
  As2O5          -112.53   -110.41    2.12  As2O5
  As4O6(cubi)    -260.67   -300.44  -39.76  As4O6
  As4O6(mono)    -260.45   -300.44  -39.99  As4O6
  Atacamite       -10.25      3.97   14.22  Cu4Cl2(OH)6
  Beidellite-Ca   -12.07     -6.68    5.39  Ca.165Al2.33Si3.67O10(OH)2
  Beidellite-H    -14.64    -10.20    4.44  H.33Al2.33Si3.67O10(OH)2
  Beidellite-K    -12.83     -7.72    5.11  K.33Al2.33Si3.67O10(OH)2
  Beidellite-Mg   -12.87     -7.52    5.35  Mg.165Al2.33Si3.67O10(OH)2
  Beidellite-Na   -12.22     -6.77    5.45  Na.33Al2.33Si3.67O10(OH)2
  Birnessite       39.33    -46.22  -85.55  Mn8O14:5H2O
  Bischofite      -20.74    -16.35    4.39  MgCl2:6H2O
  Bixbyite         10.86      9.83   -1.03  Mn2O3
  Boehmite          0.77      8.28    7.51  AlO2H
  Brucite          -0.03     16.22   16.24  Mg(OH)2
  Ca             -107.67     31.87  139.54  Ca
  Ca(g)          -132.85     31.87  164.72  Ca
  Ca-Al_Pyroxene   -5.94     29.83   35.78  CaAl2SiO6
  Ca2Al2O5:8H2O    -0.39     59.17   59.57  Ca2Al2O5:8H2O
  Ca2Cl2(OH)2:H2O -16.23     10.06   26.29  Ca2Cl2(OH)2:H2O
  Ca2V2O7          -5.53    -45.24  -39.71  Ca2V2O7
  Ca3(AsO4)2      -64.23    -46.48   17.75  Ca3(AsO4)2
  Ca3Al2O6        -32.25     80.49  112.74  Ca3Al2O6
  Ca3V2O8          -5.61    -23.93  -18.32  Ca3V2O8
  Ca4Al2Fe2O10    -38.06    102.02  140.08  Ca4Al2Fe2O10
  Ca4Al2O7:13H2O   -5.46    101.79  107.25  Ca4Al2O7:13H2O
  Ca4Al2O7:19H2O   -1.89    101.79  103.68  Ca4Al2O7:19H2O
  Ca4Cl2(OH)6:13H2O -15.66     52.67   68.33  Ca4Cl2(OH)6:13H2O
  CaAl2O4          -8.89     37.87   46.75  CaAl2O4
  CaAl2O4:10H2O    -0.13     37.86   37.99  CaAl2O4:10H2O
  CaAl4O7         -13.91     54.43   68.34  CaAl4O7
  Carnallite      -29.38    -25.11    4.27  KMgCl3:6H2O
  CaV2O6          -15.19    -66.55  -51.36  CaV2O6
  Celadonite       -7.41     -0.13    7.28  KMgAlSi4O10(OH)2
  Chalcedony       -4.29     -8.04   -3.75  SiO2
  Chamosite-7A    -30.21      2.42   32.63  Fe2Al2SiO5(OH)4
  Chloromagnesite -38.11    -16.35   21.76  MgCl2
  Chromite        -31.48    -16.41   15.07  FeCr2O4
  Chrysocolla      -5.12      1.10    6.21  CuSiH4O5
  Chrysotile        1.62     32.57   30.95  Mg3Si2O5(OH)4
  Cl2(g)          -46.10    -43.12    2.98  Cl2
  Claudetite     -130.45   -150.22  -19.77  As2O3
  Clinochlore-14A   6.69     73.53   66.84  Mg5Al2Si3O10(OH)8
  Clinochlore-7A    3.32     73.53   70.20  Mg5Al2Si3O10(OH)8
  Clinoptilolite-Ca -43.74    -51.28   -7.54  Ca1.7335Al3.45Fe.017Si14.533O36:10.922H2O
  Clinoptilolite-dehy-Ca -79.30    -51.27   28.03  Ca1.7335Al3.45Fe.017Si14.533O36
  Clinoptilolite-dehy-K -86.28    -62.14   24.14  K3.467Al3.45Fe.017Si14.533O36
  Clinoptilolite-dehy-Na -80.09    -52.16   27.92  Na3.467Al3.45Fe.017Si14.533O36
  Clinoptilolite-hy-Ca -43.74    -51.28   -7.54  Ca1.7335Al3.45Fe.017Si14.533O36:11.645H2O
  Clinoptilolite-hy-K -50.70    -62.14  -11.44  K3.467Al3.45Fe.017Si14.533O36:7.499H2O
  Clinoptilolite-hy-Na -44.52    -52.17   -7.64  Na3.467Al3.45Fe.017Si14.533O36:10.877H2O
  Clinoptilolite-K -50.72    -62.14  -11.42  K3.467Al3.45Fe.017Si14.533O36:10.922H2O
  Clinoptilolite-Na -44.53    -52.17   -7.64  Na3.467Al3.45Fe.017Si14.533O36:10.922H2O
  Clinozoisite      0.41     43.35   42.94  Ca2Al3Si3O12(OH)
  Coesite          -4.83     -8.04   -3.21  SiO2
  Cordierite_anhyd -26.48     25.37   51.85  Mg2Al4Si5O18
  Cordierite_hydr -24.00     25.37   49.37  Mg2Al4Si5O18:H2O
  Corundum         -1.64     16.56   18.20  Al2O3
  Cr              -89.28      9.16   98.44  Cr
  CrCl3           -73.38    -55.52   17.86  CrCl3
  CrF3            -47.38    -56.04   -8.67  CrF3
  CrF4            -84.60    -96.95  -12.35  CrF4
  Cristobalite(alpha)  -4.57     -8.04   -3.47  SiO2
  Cristobalite(beta)  -5.01     -8.04   -3.02  SiO2
  CrO2            -12.02    -31.13  -19.11  CrO2
  CrO3            -27.36    -30.92   -3.56  CrO3
  Cronstedtite-7A -30.01    -13.92   16.09  Fe2Fe2SiO5(OH)4
  Cu              -11.73     19.69   31.42  Cu
  Cu(g)           -63.77     19.69   83.46  Cu
  CuCl2           -27.13    -23.43    3.70  CuCl2
  CuCr2O4         -20.36     -4.23   16.13  CuCr2O4
  CuF             -27.83    -20.75    7.08  CuF
  CuF2            -23.16    -23.78   -0.62  CuF2
  CuF2:2H2O       -19.23    -23.78   -4.55  CuF2:2H2O
  Cuprite          -6.70     -8.59   -1.90  Cu2O
  Daphnite-14A    -74.73    -22.82   51.92  Fe5AlAlSi3O10(OH)8
  Daphnite-7A     -78.11    -22.82   55.29  Fe5AlAlSi3O10(OH)8
  Delafossite       2.26     -4.18   -6.44  CuFeO2
  Diaspore          1.17      8.28    7.11  AlHO2
  Dicalcium_silicate  -2.47     34.58   37.05  Ca2SiO4
  Diopside          0.62     21.45   20.84  CaMgSi2O6
  Dioptase         -4.95      1.10    6.05  CuSiO2(OH)2
  Enstatite        -3.08      8.18   11.26  MgSiO3
  Epidote           2.54     35.18   32.64  Ca2FeAl2Si3O12OH
  Epidote-ord       2.55     35.18   32.63  FeCa2Al2(OH)(SiO4)3
  Eskolaite       -20.93    -30.16   -9.23  Cr2O3
  F2(g)           -99.04    -43.47   55.57  F2
  Fayalite        -33.15    -14.14   19.01  Fe2SiO4
  Fe              -51.38      7.51   58.89  Fe
  Fe(OH)2         -16.91     -3.05   13.86  Fe(OH)2
  Fe(OH)3          -5.50      0.11    5.61  Fe(OH)3
  FeF2            -33.52    -35.96   -2.44  FeF2
  FeF3            -29.99    -49.25  -19.26  FeF3
  FeO             -16.54     -3.05   13.49  FeO
  Ferrite-Ca        0.13     21.53   21.40  CaFe2O4
  Ferrite-Cu       -0.85      9.36   10.21  CuFe2O4
  Ferrite-Dicalcium -13.79     42.84   56.63  Ca2Fe2O5
  Ferrite-Mg       -4.48     16.44   20.92  MgFe2O4
  Ferrite-Zn       -0.94     10.68   11.62  ZnFe2O4
  Ferrosilite     -18.48    -11.09    7.39  FeSiO3
  FeV2O4         -333.35    -53.40  279.95  FeV2O4
  Fluorite         -1.54    -11.60  -10.06  CaF2
  Forsterite       -3.34     24.40   27.74  Mg2SiO4
  Foshagite        -4.54     61.13   65.67  Ca4Si3O9(OH)2:0.5H2O
  Ga              -45.89     46.22   92.11  Ga
  Gehlenite        -4.91     51.14   56.05  Ca2Al2SiO7
  Gibbsite          0.57      8.28    7.70  Al(OH)3
  Gismondine        1.87     43.59   41.72  Ca2Al4Si4O16:9H2O
  Goethite         -0.40      0.11    0.51  FeOOH
  Greenalite      -47.75    -25.23   22.52  Fe3Si2O5(OH)4
  Grossular         4.75     56.38   51.62  Ca3Al2(SiO4)3
  Gyrolite         -4.26     18.51   22.77  Ca2Si3O7(OH)2:1.5H2O
  H2(g)           -32.34    -35.44   -3.10  H2
  H2O(g)           -1.57     -0.00    1.57  H2O
  Halite           -7.45     -5.88    1.56  NaCl
  Hatrurite       -17.31     55.89   73.20  Ca3SiO5
  Hausmannite      14.07     24.12   10.05  Mn3O4
  HCl(g)          -22.56    -16.28    6.28  HCl
  Hedenbergite    -17.30      2.18   19.49  CaFe(SiO3)2
  Hematite          0.19      0.22    0.03  Fe2O3
  Hercynite       -15.18     13.50   28.68  FeAl2O4
  Hillebrandite    -2.12     34.58   36.70  Ca2SiO3(OH)2:0.17H2O
  Hydrophilite    -22.97    -11.25   11.72  CaCl2
  Ice              -0.14     -0.00    0.14  H2O
  Illite           -9.33     -0.52    8.82  K0.6Mg0.25Al1.8Al0.5Si3.5O10(OH)2
  Jadeite          -5.67      2.61    8.28  NaAl(SiO3)2
  K               -58.04     12.80   70.84  K
  K(g)            -68.61     12.80   81.41  K
  K-Feldspar       -7.92     -8.31   -0.39  KAlSi3O8
  K2O             -68.84     15.04   83.89  K2O
  Kalsilite        -3.05      7.76   10.81  KAlSiO4
  Kaolinite        -6.18      0.49    6.66  Al2Si2O5(OH)4
  Karelianite     -60.24    -50.35    9.89  V2O3
  Katoite           1.54     80.48   78.94  Ca3Al2H12O12
  KMgCl3          -46.31    -25.11   21.20  KMgCl3
  KMgCl3:2H2O     -39.04    -25.11   13.93  KMgCl3:2H2O
  Kyanite          -7.00      8.52   15.53  Al2SiO5
  Lammerite       -84.57    -83.01    1.55  Cu3(AsO4)2
  Larnite          -3.76     34.58   38.34  Ca2SiO4
  Laumontite       -7.72      5.72   13.45  CaAl2Si4O12:4H2O
  Lawrencite      -44.64    -35.62    9.02  FeCl2
  Lawsonite        -0.22     21.80   22.02  CaAl2Si2O7(OH)2:H2O
  Lime            -11.19     21.31   32.50  CaO
  Lopezite        -29.38    -46.81  -17.43  K2Cr2O7
  Magnesiochromite -18.73      2.85   21.59  MgCr2O4
  Magnetite       -13.17     -2.83   10.34  Fe3O4
  Manganite         5.08      4.91   -0.16  MnO(OH)
  Manganosite      -3.58     14.29   17.87  MnO
  Margarite        -2.39     38.35   40.74  CaAl4Si2O10(OH)2
  Maximum_Microcline  -7.92     -8.31   -0.39  KAlSi3O8
  Mayenite       -121.11    371.62  492.73  Ca12Al14O33
  Merwinite        -4.19     64.07   68.26  MgCa3(SiO4)2
  Mesolite         -0.11     13.32   13.43  Na.676Ca.657Al1.99Si3.01O10:2.647H2O
  Mg              -95.48     26.78  122.26  Mg
  Mg(g)          -115.15     26.78  141.93  Mg
  Mg2V2O7         -24.53    -55.43  -30.90  Mg2V2O7
  MgCl2:2H2O      -29.05    -16.35   12.70  MgCl2:2H2O
  MgCl2:4H2O      -23.63    -16.35    7.29  MgCl2:4H2O
  MgCl2:H2O       -32.38    -16.35   16.03  MgCl2:H2O
  MgOHCl          -15.91     -0.07   15.85  MgOHCl
  MgV2O6          -25.80    -71.65  -45.85  MgV2O6
  Minnesotaite    -55.10    -41.30   13.80  Fe3Si4O10(OH)2
  Mn              -57.90     24.85   82.76  Mn
  Mn(OH)2(am)      -0.98     14.29   15.27  Mn(OH)2
  Mn(OH)3          -1.43      4.91    6.34  Mn(OH)3
  MnCl2:2H2O      -22.25    -18.27    3.99  MnCl2:2H2O
  MnCl2:4H2O      -21.02    -18.27    2.75  MnCl2:4H2O
  MnCl2:H2O       -23.79    -18.27    5.52  MnCl2:H2O
  MnO2(gamma)       3.66    -12.47  -16.13  MnO2
  MnV2O6          -21.49    -73.57  -52.08  MnV2O6
  Molysite        -62.15    -48.73   13.42  FeCl3
  Monticellite      0.03     29.49   29.46  CaMgSiO4
  Montmor-Ca      -11.76     -9.45    2.31  Ca.165Mg.33Al1.67Si4O10(OH)2
  Montmor-K       -12.44    -10.48    1.96  K.33Mg.33Al1.67Si4O10(OH)2
  Montmor-Mg      -12.49    -10.29    2.20  Mg.495Al1.67Si4O10(OH)2
  Montmor-Na      -11.83     -9.53    2.30  Na.33Mg.33Al1.67Si4O10(OH)2
  Mordenite       -17.60    -22.96   -5.36  Ca.2895Na.361Al.94Si5.06O12:3.468H2O
  Mordenite-dehy  -32.69    -22.95    9.74  Ca.2895Na.361Al.94Si5.06O12
  Muscovite        -5.11      8.25   13.36  KAl3Si3O10(OH)2
  Na              -51.56     15.68   67.24  Na
  Na(g)           -65.01     15.68   80.69  Na
  Na2Cr2O7        -30.88    -41.05  -10.17  Na2Cr2O7
  Na2CrO4         -13.02    -10.13    2.89  Na2CrO4
  Na2O            -46.50     20.80   67.29  Na2O
  Na2SiO3          -9.41     12.76   22.17  Na2SiO3
  Na4SiO4         -36.93     33.56   70.48  Na4SiO4
  Na6Si2O7        -55.05     46.32  101.36  Na6Si2O7
  NaFeO2           -9.32     10.51   19.83  NaFeO2
  Nantokite       -13.83    -20.58   -6.75  CuCl
  Natrolite        -5.08     13.25   18.33  Na2Al2Si3O10:2H2O
  Natrosilite     -13.32      4.72   18.05  Na2Si2O5
  Nepheline        -3.06     10.64   13.70  NaAlSiO4
  Niter            -8.81     -9.02   -0.21  KNO3
  NO2(g)          -19.57    -11.26    8.32  NO2
  Nontronite-Ca   -11.27    -23.02  -11.74  Ca.165Fe2Al.33Si3.67H2O12
  Nontronite-H    -13.83    -26.53  -12.70  H.33Fe2Al.33Si3.67H2O12
  Nontronite-K    -12.03    -24.05  -12.02  K.33Fe2Al.33Si3.67H2O12
  Nontronite-Mg   -12.08    -23.86  -11.78  Mg.165Fe2Al.33Si3.67H2O12
  Nontronite-Na   -11.42    -23.10  -11.69  Na.33Fe2Al.33Si3.67H2O12
  O2(g)           -18.23    -21.12   -2.90  O2
  Okenite          -5.07      5.24   10.31  CaSi2O4(OH)2:H2O
  Oxychloride-Mg   -9.68     16.15   25.83  Mg2Cl(OH)3:4H2O
  Paragonite       -6.15     11.13   17.28  NaAl3Si3O10(OH)2
  Pargasite        -6.89     94.50  101.39  NaCa2Al3Mg4Si6O22(OH)2
  Periclase        -5.06     16.22   21.27  MgO
  Phlogopite        3.15     40.34   37.19  KAlMg3Si3O10(OH)2
  Portlandite      -1.19     21.31   22.50  Ca(OH)2
  Prehnite          2.39     35.07   32.68  Ca2Al2Si3O10(OH)2
  Pseudowollastonite  -0.66     13.27   13.93  CaSiO3
  Pyrolusite        5.16    -12.47  -17.63  MnO2
  Pyrophyllite    -15.84    -15.58    0.25  Al2Si4O10(OH)2
  Quartz           -4.02     -8.04   -4.02  SiO2
  Rankinite        -3.86     47.86   51.72  Ca3Si2O7
  Rhodonite        -3.41      6.26    9.67  MnSiO3
  Ripidolite-14A  -25.59     34.99   60.58  Mg3Fe2Al2Si3O10(OH)8
  Ripidolite-7A   -28.96     34.99   63.95  Mg3Fe2Al2Si3O10(OH)8
  Sanidine_high    -9.11     -8.31    0.81  KAlSi3O8
  Saponite-Ca      -0.66     25.40   26.07  Ca.165Mg3Al.33Si3.67O10(OH)2
  Saponite-H       -3.23     21.89   25.11  H.33Mg3Al.33Si3.67O10(OH)2
  Saponite-K       -1.42     24.37   25.79  K.33Mg3Al.33Si3.67O10(OH)2
  Saponite-Mg      -1.46     24.56   26.03  Mg3.165Al.33Si3.67O10(OH)2
  Saponite-Na      -0.81     25.32   26.12  Na.33Mg3Al.33Si3.67O10(OH)2
  Scacchite       -26.98    -18.27    8.71  MnCl2
  Scolecite        -1.91     13.76   15.67  CaAl2Si3O10:3H2O
  Sellaite         -7.25    -16.69   -9.45  MgF2
  Sepiolite       -13.52     16.65   30.17  Mg4Si6O15(OH)2:6H2O
  Shcherbinaite   -29.50    -30.97   -1.46  V2O5
  Si             -135.47     13.09  148.56  Si
  Si(g)          -206.39     13.09  219.48  Si
  SiF4(g)         -58.60    -73.85  -15.25  SiF4
  Sillimanite      -7.64      8.52   16.16  Al2SiO5
  SiO2(am)         -5.30     -8.04   -2.74  SiO2
  Smectite-high-Fe-Mg -14.76      2.44   17.20  Ca.025Na.1K.2Fe.5Fe.2Mg1.15Al1.25Si3.5H2O12
  Smectite-low-Fe-Mg -13.41     -2.57   10.84  Ca.02Na.15K.2Fe.29Fe.16Mg.9Al1.25Si3.75H2O12
  Spinel           -4.69     32.77   37.47  Al2MgO4
  Stilbite        -14.36    -13.58    0.78  Ca1.019Na.136K.006Al2.18Si6.82O18:7.33H2O
  Sylvite          -9.59     -8.76    0.83  KCl
  Tachyhydrite    -61.09    -43.95   17.14  Mg2CaCl6:12H2O
  Talc             -4.43     16.50   20.94  Mg3Si4O10(OH)2
  Tarapacaite     -15.47    -15.88   -0.41  K2CrO4
  Tenorite          1.51      9.13    7.62  CuO
  Tephroite        -2.42     20.55   22.97  Mn2SiO4
  Tobermorite-11A  -6.96     58.33   65.29  Ca5Si6H11O22.5
  Tobermorite-14A  -5.20     58.33   63.53  Ca5Si6H21O27.5
  Tobermorite-9A  -10.41     58.33   68.74  Ca5Si6H6O20
  Todorokite       36.08     -9.74  -45.82  Mn7O12:3H2O
  Tremolite        -1.38     59.41   60.79  Ca2Mg5Si8O22(OH)2
  Tridymite        -4.20     -8.04   -3.83  SiO2
  V              -116.04     -9.33  106.70  V
  V2O4            -38.08    -29.56    8.52  V2O4
  V3O5            -78.48    -65.13   13.35  V3O5
  V4O7            -98.60    -79.91   18.70  V4O7
  Wairakite       -12.11      5.73   17.83  CaAl2Si4O10(OH)4
  Wollastonite     -0.42     13.27   13.70  CaSiO3
  Wustite         -14.92     -2.56   12.37  Fe.947O
  Xonotlite       -11.93     79.64   91.57  Ca6Si6O17(OH)2
  Zincite          -0.71     10.46   11.17  ZnO
  Zn              -47.62     21.02   68.64  Zn
  Zn(ClO4)2:6H2O -143.64   -138.00    5.64  Zn(ClO4)2:6H2O
  Zn(g)           -64.19     21.02   85.21  Zn
  Zn(NO3)2:6H2O   -26.03    -22.62    3.41  Zn(NO3)2:6H2O
  Zn(OH)2(beta)    -1.45     10.46   11.90  Zn(OH)2
  Zn(OH)2(epsilon)  -1.17     10.46   11.63  Zn(OH)2
  Zn(OH)2(gamma)   -1.43     10.46   11.88  Zn(OH)2
  Zn2(OH)3Cl      -10.66      4.63   15.29  Zn2(OH)3Cl
  Zn2SiO4          -0.92     12.88   13.80  Zn2SiO4
  Zn3(AsO4)2      -88.35    -79.04    9.31  Zn3(AsO4)2
  Zn5(NO3)2(OH)8  -23.46     19.21   42.67  Zn5(NO3)2(OH)8
  ZnCl2           -29.16    -22.10    7.05  ZnCl2
  ZnCr2O4         -10.75     -2.90    7.84  ZnCr2O4
  ZnF2            -21.94    -22.45   -0.51  ZnF2
  Zoisite           0.37     43.35   42.98  Ca2Al3(SiO4)3OH

**For a gas, SI = log10(fugacity). Fugacity = pressure * phi / 1 atm.
  For ideal gases, phi = 1.

Initial solution 2.	 1WBRA2 

-----------------------------Solution composition------------------------------

	Elements           Molality       Moles

	Al                3.738e-03   3.738e-03
	As                4.204e-07   4.204e-07
	Ca                1.487e-03   1.487e-03
	Cl                2.782e-04   2.782e-04
	Cr                7.277e-07   7.277e-07
	Cu                5.747e-07   5.747e-07
	F                 2.856e-05   2.856e-05
	Fe                1.381e-05   1.381e-05
	Ga                2.223e-06   2.223e-06
	K                 1.001e-04   1.001e-04
	Mg                1.231e-08   1.231e-08
	Mn                8.375e-10   8.375e-10
	N(5)              5.298e-05   5.298e-05
	Na                1.874e-02   1.874e-02
	Si                2.099e-04   2.099e-04
	V                 1.578e-05   1.578e-05
	Zn                1.705e-07   1.705e-07

----------------------------Description of solution----------------------------

                                       pH  =  12.168      Charge balance
                                       pe  =   4.000    
                        Activity of water  =   0.999
                 Ionic strength (mol/kgw)  =   2.287e-02
                       Mass of water (kg)  =   1.000e+00
                 Total alkalinity (eq/kg)  =   3.270e-02
                    Total carbon (mol/kg)  =   0.000e+00
                       Total CO2 (mol/kg)  =   0.000e+00
                         Temperature (°C)  =  25.60
                  Electrical balance (eq)  =  -1.853e-16
 Percent error, 100*(Cat-|An|)/(Cat+|An|)  =  -0.00
                               Iterations  =  24
                                  Total H  = 1.110684e+02
                                  Total O  = 5.555118e+01

----------------------------Distribution of species----------------------------

                                               Log       Log       Log    mole V
   Species          Molality    Activity  Molality  Activity     Gamma   cm³/mol

   OH-             1.721e-02   1.482e-02    -1.764    -1.829    -0.065     (0)  
   H+              7.668e-13   6.794e-13   -12.115   -12.168    -0.053      0.00
   H2O             5.553e+01   9.993e-01     1.744    -0.000     0.000     18.07
Al            3.738e-03
   AlO2-           3.728e-03   3.220e-03    -2.428    -2.492    -0.064     (0)  
   NaAlO2          9.955e-06   9.955e-06    -5.002    -5.002     0.000     (0)  
   HAlO2           6.204e-09   6.204e-09    -8.207    -8.207     0.000     (0)  
   Al(OH)2+        3.230e-15   2.789e-15   -14.491   -14.554    -0.064     (0)  
   AlOH+2          1.403e-21   7.852e-22   -20.853   -21.105    -0.252     (0)  
   AlF2+           1.225e-25   1.058e-25   -24.912   -24.975    -0.064     (0)  
   AlF3            3.211e-26   3.211e-26   -25.493   -25.493     0.000     (0)  
   AlF+2           1.971e-26   1.103e-26   -25.705   -25.957    -0.252     (0)  
   AlF4-           2.251e-28   1.944e-28   -27.648   -27.711    -0.064     (0)  
   Al+3            1.383e-28   4.577e-29   -27.859   -28.339    -0.480     (0)  
   Al2(OH)2+4      8.665e-40   0.000e+00   -39.062   -40.034    -0.972     (0)  
   Al3(OH)4+5      0.000e+00   0.000e+00   -48.739   -50.228    -1.490     (0)  
   Al13O4(OH)24+7   0.000e+00   0.000e+00   -74.859   -77.779    -2.921     (0)  
As(-3)        0.000e+00
   AsH3            0.000e+00   0.000e+00  -166.992  -166.992     0.000     (0)  
As(3)         0.000e+00
   AsO2OH-2        0.000e+00   0.000e+00   -60.725   -60.983    -0.257     (0)  
   H2AsO3-         0.000e+00   0.000e+00   -62.086   -62.149    -0.064     (0)  
   AsO2-           0.000e+00   0.000e+00   -62.106   -62.170    -0.064     (0)  
   HAsO2           0.000e+00   0.000e+00   -65.055   -65.055     0.000     (0)  
   As(OH)3         0.000e+00   0.000e+00   -65.113   -65.113     0.000     (0)  
As(5)         4.204e-07
   AsO3F-2         4.204e-07   2.325e-07    -6.376    -6.634    -0.257     (0)  
   HAsO3F-         1.358e-13   1.173e-13   -12.867   -12.931    -0.064     (0)  
   AsO4-3          1.956e-36   5.143e-37   -35.709   -36.289    -0.580     (0)  
   HAsO4-2         2.428e-37   1.342e-37   -36.615   -36.872    -0.257     (0)  
   H2AsO4-         0.000e+00   0.000e+00   -42.197   -42.261    -0.064     (0)  
   H3AsO4          0.000e+00   0.000e+00   -52.181   -52.181     0.000     (0)  
Ca            1.487e-03
   Ca+2            1.305e-03   7.552e-04    -2.884    -3.122    -0.238     (0)  
   CaOH+           1.817e-04   1.569e-04    -3.741    -3.804    -0.064     (0)  
   CaNO3+          1.985e-07   1.714e-07    -6.702    -6.766    -0.064     (0)  
   CaF+            1.077e-07   9.298e-08    -6.968    -7.032    -0.064     (0)  
   CaCl+           4.422e-08   3.819e-08    -7.354    -7.418    -0.064     (0)  
   CaCl2           1.063e-11   1.063e-11   -10.973   -10.973     0.000     (0)  
Cl(-1)        2.782e-04
   Cl-             2.775e-04   2.381e-04    -3.557    -3.623    -0.066     (0)  
   NaCl            6.758e-07   6.758e-07    -6.170    -6.170     0.000     (0)  
   CaCl+           4.422e-08   3.819e-08    -7.354    -7.418    -0.064     (0)  
   KCl             6.919e-10   6.919e-10    -9.160    -9.160     0.000     (0)  
   CaCl2           1.063e-11   1.063e-11   -10.973   -10.973     0.000     (0)  
   MgCl+           1.593e-12   1.376e-12   -11.798   -11.861    -0.064     (0)  
   Zn(OH)Cl        2.022e-14   2.022e-14   -13.694   -13.694     0.000     (0)  
   MnCl+           1.181e-15   1.020e-15   -14.928   -14.991    -0.064     (0)  
   HCl             3.636e-17   3.636e-17   -16.439   -16.439     0.000     (0)  
   ZnCl+           9.648e-19   8.333e-19   -18.016   -18.079    -0.064     (0)  
   CuCl+           1.440e-19   1.244e-19   -18.842   -18.905    -0.064     (0)  
   CuCl2-          4.642e-20   4.009e-20   -19.333   -19.397    -0.064     (0)  
   ZnCl2           2.296e-22   2.296e-22   -21.639   -21.639     0.000     (0)  
   CuCl3-2         1.109e-22   6.131e-23   -21.955   -22.212    -0.257     (0)  
   CuCl2           1.560e-23   1.560e-23   -22.807   -22.807     0.000     (0)  
   MnCl3-          1.441e-23   1.244e-23   -22.841   -22.905    -0.064     (0)  
   ZnCl3-          3.446e-26   2.976e-26   -25.463   -25.526    -0.064     (0)  
   FeCl+           2.088e-27   1.803e-27   -26.680   -26.744    -0.064     (0)  
   CrO3Cl-         1.985e-27   1.715e-27   -26.702   -26.766    -0.064     (0)  
   ZnCl4-2         9.651e-29   5.336e-29   -28.015   -28.273    -0.257     (0)  
   FeCl2           2.312e-33   2.312e-33   -32.636   -32.636     0.000     (0)  
   CuCl4-2         3.002e-35   1.660e-35   -34.523   -34.780    -0.257     (0)  
   FeCl+2          7.400e-37   4.141e-37   -36.131   -36.383    -0.252     (0)  
   FeCl2+          8.967e-38   7.745e-38   -37.047   -37.111    -0.064     (0)  
   FeCl4-2         6.869e-40   3.798e-40   -39.163   -39.420    -0.257     (0)  
   CrCl+2          0.000e+00   0.000e+00   -46.492   -46.744    -0.252     (0)  
   FeCl4-          0.000e+00   0.000e+00   -47.214   -47.277    -0.064     (0)  
   CrCl2+          0.000e+00   0.000e+00   -49.946   -50.010    -0.064     (0)  
Cl(1)         5.958e-30
   ClO-            5.958e-30   5.146e-30   -29.225   -29.289    -0.064     (0)  
   HClO            1.297e-34   1.297e-34   -33.887   -33.887     0.000     (0)  
Cl(3)         0.000e+00
   ClO2-           0.000e+00   0.000e+00   -47.791   -47.855    -0.064     (0)  
   HClO2           0.000e+00   0.000e+00   -56.853   -56.853     0.000     (0)  
Cl(5)         0.000e+00
   ClO3-           0.000e+00   0.000e+00   -52.532   -52.597    -0.065     (0)  
Cl(7)         0.000e+00
   ClO4-           0.000e+00   0.000e+00   -61.571   -61.636    -0.065     (0)  
   ZnClO4+         0.000e+00   0.000e+00   -74.992   -75.056    -0.064     (0)  
Cr(2)         0.000e+00
   Cr+2            0.000e+00   0.000e+00   -55.198   -55.450    -0.252     (0)  
Cr(3)         2.306e-22
   Cr(OH)4-        2.303e-22   1.989e-22   -21.638   -21.701    -0.064     (0)  
   Cr(OH)3         3.397e-25   3.397e-25   -24.469   -24.469     0.000     (0)  
   Cr(OH)2+        5.335e-29   4.608e-29   -28.273   -28.337    -0.064     (0)  
   CrOH+2          2.806e-35   1.570e-35   -34.552   -34.804    -0.252     (0)  
   Cr+3            0.000e+00   0.000e+00   -42.491   -42.972    -0.480     (0)  
   CrCl+2          0.000e+00   0.000e+00   -46.492   -46.744    -0.252     (0)  
   CrCl2+          0.000e+00   0.000e+00   -49.946   -50.010    -0.064     (0)  
   Cr2(OH)2+4      0.000e+00   0.000e+00   -65.696   -66.668    -0.972     (0)  
   Cr3(OH)4+5      0.000e+00   0.000e+00   -86.905   -88.395    -1.490     (0)  
Cr(5)         7.344e-09
   CrO4-3          7.344e-09   1.931e-09    -8.134    -8.714    -0.580     (0)  
Cr(6)         7.204e-07
   CrO4-2          7.204e-07   3.983e-07    -6.142    -6.400    -0.257     (0)  
   HCrO4-          1.045e-12   9.022e-13   -11.981   -12.045    -0.064     (0)  
   Cr2O7-2         4.841e-23   2.676e-23   -22.315   -22.572    -0.257     (0)  
   H2CrO4          2.892e-26   2.892e-26   -25.539   -25.539     0.000     (0)  
   CrO3Cl-         1.985e-27   1.715e-27   -26.702   -26.766    -0.064     (0)  
Cu(1)         1.240e-17
   Cu+             1.236e-17   1.067e-17   -16.908   -16.972    -0.064     (0)  
   CuCl2-          4.642e-20   4.009e-20   -19.333   -19.397    -0.064     (0)  
   CuCl3-2         1.109e-22   6.131e-23   -21.955   -22.212    -0.257     (0)  
Cu(2)         5.747e-07
   CuO2-2          5.747e-07   3.178e-07    -6.241    -6.498    -0.257     (0)  
   CuOH+           1.677e-11   1.449e-11   -10.775   -10.839    -0.064     (0)  
   Cu+2            3.300e-16   1.909e-16   -15.482   -15.719    -0.238     (0)  
   CuCl+           1.440e-19   1.244e-19   -18.842   -18.905    -0.064     (0)  
   CuF+            8.445e-20   7.294e-20   -19.073   -19.137    -0.064     (0)  
   CuCl2           1.560e-23   1.560e-23   -22.807   -22.807     0.000     (0)  
   CuCl4-2         3.002e-35   1.660e-35   -34.523   -34.780    -0.257     (0)  
F             2.856e-05
   F-              2.799e-05   2.410e-05    -4.553    -4.618    -0.065     (0)  
   AsO3F-2         4.204e-07   2.325e-07    -6.376    -6.634    -0.257     (0)  
   CaF+            1.077e-07   9.298e-08    -6.968    -7.032    -0.064     (0)  
   NaF             4.170e-08   4.170e-08    -7.380    -7.380     0.000     (0)  
   MgF+            4.995e-12   4.315e-12   -11.301   -11.365    -0.064     (0)  
   HAsO3F-         1.358e-13   1.173e-13   -12.867   -12.931    -0.064     (0)  
   HF              2.543e-14   2.543e-14   -13.595   -13.595     0.000     (0)  
   MnF+            1.488e-15   1.285e-15   -14.827   -14.891    -0.064     (0)  
   ZnF+            7.923e-19   6.843e-19   -18.101   -18.165    -0.064     (0)  
   HF2-            1.729e-19   1.493e-19   -18.762   -18.826    -0.064     (0)  
   CuF+            8.445e-20   7.294e-20   -19.073   -19.137    -0.064     (0)  
   AlF2+           1.225e-25   1.058e-25   -24.912   -24.975    -0.064     (0)  
   AlF3            3.211e-26   3.211e-26   -25.493   -25.493     0.000     (0)  
   AlF+2           1.971e-26   1.103e-26   -25.705   -25.957    -0.252     (0)  
   FeF+            6.626e-27   5.723e-27   -26.179   -26.242    -0.064     (0)  
   H2F2            1.572e-27   1.572e-27   -26.804   -26.804     0.000     (0)  
   AlF4-           2.251e-28   1.944e-28   -27.648   -27.711    -0.064     (0)  
   VO2F            2.029e-29   2.029e-29   -28.693   -28.693     0.000     (0)  
   VO2F2-          1.633e-31   1.411e-31   -30.787   -30.851    -0.064     (0)  
   FeF+2           6.620e-33   3.705e-33   -32.179   -32.431    -0.252     (0)  
   FeF2+           1.687e-33   1.457e-33   -32.773   -32.837    -0.064     (0)  
   VOF+            3.664e-40   3.165e-40   -39.436   -39.500    -0.064     (0)  
   VOF2            0.000e+00   0.000e+00   -41.338   -41.338     0.000     (0)  
   SiF6-2          0.000e+00   0.000e+00   -56.006   -56.263    -0.257     (0)  
Fe(2)         3.889e-18
   Fe(OH)3-        3.819e-18   3.298e-18   -17.418   -17.482    -0.064     (0)  
   Fe(OH)2         5.633e-20   5.633e-20   -19.249   -19.249     0.000     (0)  
   Fe(OH)4-2       8.774e-21   4.851e-21   -20.057   -20.314    -0.257     (0)  
   FeOH+           5.582e-21   4.821e-21   -20.253   -20.317    -0.064     (0)  
   Fe+2            1.791e-23   1.037e-23   -22.747   -22.984    -0.238     (0)  
   FeF+            6.626e-27   5.723e-27   -26.179   -26.242    -0.064     (0)  
   FeCl+           2.088e-27   1.803e-27   -26.680   -26.744    -0.064     (0)  
   FeCl2           2.312e-33   2.312e-33   -32.636   -32.636     0.000     (0)  
   FeCl4-2         6.869e-40   3.798e-40   -39.163   -39.420    -0.257     (0)  
Fe(3)         1.381e-05
   Fe(OH)4-        1.378e-05   1.190e-05    -4.861    -4.924    -0.064     (0)  
   Fe(OH)3         3.222e-08   3.222e-08    -7.492    -7.492     0.000     (0)  
   Fe(OH)2+        5.422e-14   4.683e-14   -13.266   -13.329    -0.064     (0)  
   FeOH+2          1.718e-22   9.615e-23   -21.765   -22.017    -0.252     (0)  
   Fe+3            3.061e-32   1.013e-32   -31.514   -31.995    -0.480     (0)  
   FeF+2           6.620e-33   3.705e-33   -32.179   -32.431    -0.252     (0)  
   FeF2+           1.687e-33   1.457e-33   -32.773   -32.837    -0.064     (0)  
   FeNO3+2         8.195e-36   4.586e-36   -35.086   -35.339    -0.252     (0)  
   FeCl+2          7.400e-37   4.141e-37   -36.131   -36.383    -0.252     (0)  
   FeCl2+          8.967e-38   7.745e-38   -37.047   -37.111    -0.064     (0)  
   Fe2(OH)2+4      0.000e+00   0.000e+00   -41.632   -42.604    -0.972     (0)  
   FeCl4-          0.000e+00   0.000e+00   -47.214   -47.277    -0.064     (0)  
   Fe3(OH)4+5      0.000e+00   0.000e+00   -52.124   -53.614    -1.490     (0)  
Ga            2.223e-06
   Ga+3            2.223e-06   6.164e-07    -5.653    -6.210    -0.557     (0)  
H(0)          7.495e-36
   H2              3.748e-36   3.768e-36   -35.426   -35.424     0.002     (0)  
K             1.001e-04
   K+              9.963e-05   8.550e-05    -4.002    -4.068    -0.066     (0)  
   KOH             4.360e-07   4.360e-07    -6.360    -6.360     0.000     (0)  
   KCl             6.919e-10   6.919e-10    -9.160    -9.160     0.000     (0)  
Mg            1.231e-08
   Mg+2            1.230e-08   7.401e-09    -7.910    -8.131    -0.221     (0)  
   MgF+            4.995e-12   4.315e-12   -11.301   -11.365    -0.064     (0)  
   MgCl+           1.593e-12   1.376e-12   -11.798   -11.861    -0.064     (0)  
   Mg4(OH)4+4      2.339e-23   2.496e-24   -22.631   -23.603    -0.972     (0)  
Mn(2)         8.375e-10
   Mn(OH)3-        4.320e-10   3.731e-10    -9.364    -9.428    -0.064     (0)  
   Mn(OH)2         2.705e-10   2.705e-10    -9.568    -9.568     0.000     (0)  
   MnOH+           8.673e-11   7.491e-11   -10.062   -10.125    -0.064     (0)  
   Mn2(OH)3+       1.821e-11   1.573e-11   -10.740   -10.803    -0.064     (0)  
   Mn(OH)4-2       8.406e-12   4.648e-12   -11.075   -11.333    -0.257     (0)  
   Mn+2            3.424e-12   1.981e-12   -11.465   -11.703    -0.238     (0)  
   MnF+            1.488e-15   1.285e-15   -14.827   -14.891    -0.064     (0)  
   MnCl+           1.181e-15   1.020e-15   -14.928   -14.991    -0.064     (0)  
   MnNO3+          1.647e-16   1.422e-16   -15.783   -15.847    -0.064     (0)  
   Mn(NO3)2        1.618e-20   1.618e-20   -19.791   -19.791     0.000     (0)  
   Mn2OH+3         5.736e-22   1.590e-22   -21.241   -21.798    -0.557     (0)  
   MnCl3-          1.441e-23   1.244e-23   -22.841   -22.905    -0.064     (0)  
Mn(3)         1.993e-33
   Mn+3            1.993e-33   5.526e-34   -32.700   -33.258    -0.557     (0)  
Mn(6)         4.689e-17
   MnO4-2          4.689e-17   2.593e-17   -16.329   -16.586    -0.257     (0)  
Mn(7)         1.431e-22
   MnO4-           1.431e-22   1.232e-22   -21.844   -21.909    -0.065     (0)  
N(5)          5.298e-05
   NO3-            5.278e-05   4.529e-05    -4.278    -4.344    -0.066     (0)  
   CaNO3+          1.985e-07   1.714e-07    -6.702    -6.766    -0.064     (0)  
   MnNO3+          1.647e-16   1.422e-16   -15.783   -15.847    -0.064     (0)  
   HNO3            1.632e-18   1.632e-18   -17.787   -17.787     0.000     (0)  
   Mn(NO3)2        1.618e-20   1.618e-20   -19.791   -19.791     0.000     (0)  
   FeNO3+2         8.195e-36   4.586e-36   -35.086   -35.339    -0.252     (0)  
Na            1.874e-02
   Na+             1.861e-02   1.608e-02    -1.730    -1.794    -0.064     (0)  
   NaHSiO3         7.267e-05   7.267e-05    -4.139    -4.139     0.000     (0)  
   NaOH            4.106e-05   4.106e-05    -4.387    -4.387     0.000     (0)  
   NaAlO2          9.955e-06   9.955e-06    -5.002    -5.002     0.000     (0)  
   NaCl            6.758e-07   6.758e-07    -6.170    -6.170     0.000     (0)  
   NaF             4.170e-08   4.170e-08    -7.380    -7.380     0.000     (0)  
O(0)          1.393e-21
   O2              6.963e-22   7.002e-22   -21.157   -21.155     0.002     (0)  
Si            2.099e-04
   HSiO3-          1.124e-04   9.704e-05    -3.949    -4.013    -0.064     (0)  
   NaHSiO3         7.267e-05   7.267e-05    -4.139    -4.139     0.000     (0)  
   H2SiO4-2        2.428e-05   1.342e-05    -4.615    -4.872    -0.257     (0)  
   SiO2            5.659e-07   5.659e-07    -6.247    -6.247     0.000     (0)  
   H4(H2SiO4)4-4   5.921e-12   5.497e-13   -11.228   -12.260    -1.032     (0)  
   H6(H2SiO4)4-2   9.156e-15   5.063e-15   -14.038   -14.296    -0.257     (0)  
   SiF6-2          0.000e+00   0.000e+00   -56.006   -56.263    -0.257     (0)  
V(3)          0.000e+00
   V(OH)2+         0.000e+00   0.000e+00   -42.956   -43.020    -0.064     (0)  
   VOH+2           0.000e+00   0.000e+00   -51.276   -51.528    -0.252     (0)  
   V+3             0.000e+00   0.000e+00   -60.878   -61.435    -0.557     (0)  
   V2(OH)2+4       0.000e+00   0.000e+00  -101.364  -102.336    -0.972     (0)  
V(4)          4.781e-33
   VOOH+           4.781e-33   4.129e-33   -32.321   -32.384    -0.064     (0)  
   VO+2            2.346e-39   1.313e-39   -38.630   -38.882    -0.252     (0)  
   VOF+            3.664e-40   3.165e-40   -39.436   -39.500    -0.064     (0)  
   VOF2            0.000e+00   0.000e+00   -41.338   -41.338     0.000     (0)  
   (VO)2(OH)2+2    0.000e+00   0.000e+00   -59.846   -60.098    -0.252     (0)  
V(5)          1.578e-05
   VO3OH-2         1.407e-05   7.778e-06    -4.852    -5.109    -0.257     (0)  
   HVO4-2          1.472e-06   8.138e-07    -5.832    -6.089    -0.257     (0)  
   VO4-3           2.393e-07   6.291e-08    -6.621    -7.201    -0.580     (0)  
   H2VO4-          7.680e-11   6.633e-11   -10.115   -10.178    -0.064     (0)  
   VO2(OH)2-       4.722e-11   4.078e-11   -10.326   -10.390    -0.064     (0)  
   VO(OH)3         2.771e-19   2.771e-19   -18.557   -18.557     0.000     (0)  
   VO2+            4.355e-28   3.761e-28   -27.361   -27.425    -0.064     (0)  
   VO2F            2.029e-29   2.029e-29   -28.693   -28.693     0.000     (0)  
   VO2F2-          1.633e-31   1.411e-31   -30.787   -30.851    -0.064     (0)  
Zn            1.705e-07
   Zn(OH)3-        1.078e-07   9.311e-08    -6.967    -7.031    -0.064     (0)  
   Zn(OH)4-2       4.223e-08   2.335e-08    -7.374    -7.632    -0.257     (0)  
   Zn(OH)2         2.042e-08   2.042e-08    -7.690    -7.690     0.000     (0)  
   ZnOH+           3.928e-12   3.393e-12   -11.406   -11.469    -0.064     (0)  
   Zn(OH)Cl        2.022e-14   2.022e-14   -13.694   -13.694     0.000     (0)  
   Zn+2            3.474e-15   2.010e-15   -14.459   -14.697    -0.238     (0)  
   ZnCl+           9.648e-19   8.333e-19   -18.016   -18.079    -0.064     (0)  
   ZnF+            7.923e-19   6.843e-19   -18.101   -18.165    -0.064     (0)  
   ZnCl2           2.296e-22   2.296e-22   -21.639   -21.639     0.000     (0)  
   ZnCl3-          3.446e-26   2.976e-26   -25.463   -25.526    -0.064     (0)  
   ZnCl4-2         9.651e-29   5.336e-29   -28.015   -28.273    -0.257     (0)  
   ZnClO4+         0.000e+00   0.000e+00   -74.992   -75.056    -0.064     (0)  

------------------------------Saturation indices-------------------------------

  Phase               SI** log IAP   log K(298 K,   1 atm)

  Afwillite        -8.71     51.15   59.85  Ca3Si2O4(OH)6
  Akermanite        1.01     46.14   45.13  Ca2MgSi2O7
  Al             -125.55     24.03  149.58  Al
  Al(g)          -176.14     24.03  200.17  Al
  Albite           -2.84     -0.20    2.64  NaAlSi3O8
  Albite_high      -4.16     -0.20    3.95  NaAlSi3O8
  Albite_low       -2.84     -0.20    2.64  NaAlSi3O8
  AlF3            -24.92    -42.19  -17.28  AlF3
  Amesite-14A       9.98     84.98   74.99  Mg4Al4Si2O10(OH)8
  Analcime         -0.98      5.05    6.03  Na.96Al.96Si2.04O6:H2O
  Analcime-dehy    -7.33      5.05   12.38  Na.96Al.96Si2.04O6
  Andalusite       -5.72     10.08   15.80  Al2SiO5
  Andradite        20.84     53.92   33.08  Ca3Fe2(SiO4)3
  Annite          -27.66      1.57   29.24  KFe3AlSi3O10(OH)2
  Anorthite        -1.32     25.05   26.37  CaAl2(SiO4)2
  Antarcticite    -14.46    -10.37    4.09  CaCl2:6H2O
  Anthophyllite    -2.85     63.45   66.31  Mg7Si8O22(OH)2
  Antigorite       90.96    565.41  474.45  Mg48Si34O85(OH)62
  Arsenolite     -128.82   -148.63  -19.81  As2O3
  As             -101.04    -58.45   42.59  As
  As2O5          -110.98   -108.86    2.12  As2O5
  As4O6(cubi)    -257.50   -297.27  -39.76  As4O6
  As4O6(mono)    -257.28   -297.27  -39.99  As4O6
  Atacamite       -11.34      2.88   14.22  Cu4Cl2(OH)6
  Beidellite-Ca    -5.79     -0.41    5.39  Ca.165Al2.33Si3.67O10(OH)2
  Beidellite-H     -8.34     -3.91    4.44  H.33Al2.33Si3.67O10(OH)2
  Beidellite-K     -6.34     -1.23    5.11  K.33Al2.33Si3.67O10(OH)2
  Beidellite-Mg    -6.58     -1.23    5.35  Mg.165Al2.33Si3.67O10(OH)2
  Beidellite-Na    -5.93     -0.48    5.45  Na.33Al2.33Si3.67O10(OH)2
  Birnessite       25.94    -59.60  -85.55  Mn8O14:5H2O
  Bischofite      -19.77    -15.38    4.39  MgCl2:6H2O
  Bixbyite          7.52      6.49   -1.03  Mn2O3
  Boehmite          0.65      8.16    7.51  AlO2H
  Brucite          -0.04     16.20   16.24  Mg(OH)2
  Ca             -107.75     31.79  139.54  Ca
  Ca(g)          -132.93     31.79  164.72  Ca
  Ca-Al_Pyroxene   -4.48     31.29   35.78  CaAl2SiO6
  Ca2Al2O5:8H2O    -0.82     58.75   59.57  Ca2Al2O5:8H2O
  Ca2Cl2(OH)2:H2O -15.45     10.84   26.29  Ca2Cl2(OH)2:H2O
  Ca2V2O7          -5.27    -44.98  -39.71  Ca2V2O7
  Ca3(AsO4)2      -62.97    -45.22   17.75  Ca3(AsO4)2
  Ca3Al2O6        -32.77     79.97  112.74  Ca3Al2O6
  Ca3V2O8          -5.45    -23.77  -18.32  Ca3V2O8
  Ca4Al2Fe2O10    -29.88    110.20  140.08  Ca4Al2Fe2O10
  Ca4Al2O7:13H2O   -6.08    101.18  107.25  Ca4Al2O7:13H2O
  Ca4Al2O7:19H2O   -2.51    101.18  103.68  Ca4Al2O7:19H2O
  Ca4Cl2(OH)6:13H2O -15.06     53.27   68.33  Ca4Cl2(OH)6:13H2O
  CaAl2O4          -9.21     37.54   46.75  CaAl2O4
  CaAl2O4:10H2O    -0.46     37.54   37.99  CaAl2O4:10H2O
  CaAl4O7         -14.47     53.87   68.34  CaAl4O7
  Carnallite      -27.34    -23.07    4.27  KMgCl3:6H2O
  CaV2O6          -14.83    -66.20  -51.36  CaV2O6
  Celadonite        0.19      7.48    7.28  KMgAlSi4O10(OH)2
  Chalcedony       -2.50     -6.25   -3.75  SiO2
  Chamosite-7A    -19.85     12.78   32.63  Fe2Al2SiO5(OH)4
  Chloromagnesite -37.14    -15.38   21.76  MgCl2
  Chromite        -26.65    -11.59   15.07  FeCr2O4
  Chrysocolla      -3.85      2.37    6.21  CuSiH4O5
  Chrysotile        5.16     36.12   30.95  Mg3Si2O5(OH)4
  Cl2(g)          -45.13    -42.16    2.98  Cl2
  Claudetite     -128.87   -148.63  -19.77  As2O3
  Clinochlore-14A  11.77     78.61   66.84  Mg5Al2Si3O10(OH)8
  Clinochlore-7A    8.40     78.61   70.20  Mg5Al2Si3O10(OH)8
  Clinoptilolite-Ca -18.24    -25.78   -7.54  Ca1.7335Al3.45Fe.017Si14.533O36:10.922H2O
  Clinoptilolite-dehy-Ca -53.80    -25.78   28.03  Ca1.7335Al3.45Fe.017Si14.533O36
  Clinoptilolite-dehy-K -58.61    -34.47   24.14  K3.467Al3.45Fe.017Si14.533O36
  Clinoptilolite-dehy-Na -54.50    -26.58   27.92  Na3.467Al3.45Fe.017Si14.533O36
  Clinoptilolite-hy-Ca -18.24    -25.78   -7.54  Ca1.7335Al3.45Fe.017Si14.533O36:11.645H2O
  Clinoptilolite-hy-K -23.03    -34.47  -11.44  K3.467Al3.45Fe.017Si14.533O36:7.499H2O
  Clinoptilolite-hy-Na -18.94    -26.59   -7.64  Na3.467Al3.45Fe.017Si14.533O36:10.877H2O
  Clinoptilolite-K -23.05    -34.47  -11.42  K3.467Al3.45Fe.017Si14.533O36:10.922H2O
  Clinoptilolite-Na -18.95    -26.59   -7.64  Na3.467Al3.45Fe.017Si14.533O36:10.922H2O
  Clinozoisite      5.24     48.18   42.94  Ca2Al3Si3O12(OH)
  Coesite          -3.04     -6.25   -3.21  SiO2
  Cordierite_anhyd -18.02     33.83   51.85  Mg2Al4Si5O18
  Cordierite_hydr -15.54     33.83   49.37  Mg2Al4Si5O18:H2O
  Corundum         -1.87     16.33   18.20  Al2O3
  Cr              -89.04      9.40   98.44  Cr
  CrCl3           -71.70    -53.84   17.86  CrCl3
  CrF3            -48.16    -56.83   -8.67  CrF3
  CrF4            -85.72    -98.07  -12.35  CrF4
  Cristobalite(alpha)  -2.78     -6.25   -3.47  SiO2
  Cristobalite(beta)  -3.22     -6.25   -3.02  SiO2
  CrO2            -11.82    -30.92  -19.11  CrO2
  CrO3            -27.17    -30.74   -3.56  CrO3
  Cronstedtite-7A -10.62      5.47   16.09  Fe2Fe2SiO5(OH)4
  Cu              -12.23     19.19   31.42  Cu
  Cu(g)           -64.27     19.19   83.46  Cu
  CuCl2           -26.67    -22.97    3.70  CuCl2
  CuCr2O4         -20.45     -4.32   16.13  CuCr2O4
  CuF             -28.67    -21.59    7.08  CuF
  CuF2            -24.34    -24.96   -0.62  CuF2
  CuF2:2H2O       -20.41    -24.96   -4.55  CuF2:2H2O
  Cuprite          -7.71     -9.61   -1.90  Cu2O
  Daphnite-14A    -47.58      4.34   51.92  Fe5AlAlSi3O10(OH)8
  Daphnite-7A     -50.95      4.34   55.29  Fe5AlAlSi3O10(OH)8
  Delafossite       6.15     -0.30   -6.44  CuFeO2
  Diaspore          1.06      8.16    7.11  AlHO2
  Dicalcium_silicate  -0.87     36.18   37.05  Ca2SiO4
  Diopside          4.09     24.92   20.84  CaMgSi2O6
  Dioptase         -3.68      2.37    6.05  CuSiO2(OH)2
  Enstatite        -1.30      9.96   11.26  MgSiO3
  Epidote          11.88     44.52   32.64  Ca2FeAl2Si3O12OH
  Epidote-ord      11.89     44.52   32.63  FeCa2Al2(OH)(SiO4)3
  Eskolaite       -20.51    -29.74   -9.23  Cr2O3
  F2(g)           -99.72    -44.15   55.57  F2
  Fayalite        -22.55     -3.55   19.01  Fe2SiO4
  Fe              -46.96     11.93   58.89  Fe
  Fe(OH)2         -12.51      1.35   13.86  Fe(OH)2
  Fe(OH)3          -1.10      4.51    5.61  Fe(OH)3
  FeF2            -29.78    -32.22   -2.44  FeF2
  FeF3            -26.59    -45.85  -19.26  FeF3
  FeO             -12.13      1.35   13.49  FeO
  Ferrite-Ca        8.83     30.23   21.40  CaFe2O4
  Ferrite-Cu        7.43     17.63   10.21  CuFe2O4
  Ferrite-Dicalcium  -5.19     51.44   56.63  Ca2Fe2O5
  Ferrite-Mg        4.30     25.22   20.92  MgFe2O4
  Ferrite-Zn        7.04     18.66   11.62  ZnFe2O4
  Ferrosilite     -12.28     -4.90    7.39  FeSiO3
  FeV2O4         -328.46    -48.51  279.95  FeV2O4
  Fluorite         -2.29    -12.36  -10.06  CaF2
  Forsterite       -1.57     26.16   27.74  Mg2SiO4
  Foshagite         0.44     66.11   65.67  Ca4Si3O9(OH)2:0.5H2O
  Ga              -45.95     46.16   92.11  Ga
  Gehlenite        -3.54     52.51   56.05  Ca2Al2SiO7
  Gibbsite          0.46      8.16    7.70  Al(OH)3
  Gismondine        8.37     50.09   41.72  Ca2Al4Si4O16:9H2O
  Goethite          4.00      4.51    0.51  FeOOH
  Greenalite      -30.96     -8.44   22.52  Fe3Si2O5(OH)4
  Grossular         9.60     61.23   51.62  Ca3Al2(SiO4)3
  Gyrolite          0.91     23.68   22.77  Ca2Si3O7(OH)2:1.5H2O
  H2(g)           -32.32    -35.42   -3.10  H2
  H2O(g)           -1.57     -0.00    1.57  H2O
  Halite           -6.98     -5.42    1.56  NaCl
  Hatrurite       -15.81     57.39   73.20  Ca3SiO5
  Hausmannite       9.07     19.12   10.05  Mn3O4
  HCl(g)          -22.07    -15.79    6.28  HCl
  Hedenbergite     -9.42     10.07   19.49  CaFe(SiO3)2
  Hematite          8.99      9.02    0.03  Fe2O3
  Hercynite       -11.00     17.68   28.68  FeAl2O4
  Hillebrandite    -0.52     36.18   36.70  Ca2SiO3(OH)2:0.17H2O
  Hydrophilite    -22.08    -10.37   11.72  CaCl2
  Ice              -0.14     -0.00    0.14  H2O
  Illite           -3.00      5.82    8.82  K0.6Mg0.25Al1.8Al0.5Si3.5O10(OH)2
  Jadeite          -2.24      6.04    8.28  NaAl(SiO3)2
  K               -57.45     13.39   70.84  K
  K(g)            -68.02     13.39   81.41  K
  K-Feldspar       -2.09     -2.48   -0.39  KAlSi3O8
  K2O             -67.69     16.20   83.89  K2O
  Kalsilite        -0.80     10.02   10.81  KAlSiO4
  Kaolinite        -2.83      3.83    6.66  Al2Si2O5(OH)4
  Karelianite     -59.76    -49.86    9.89  V2O3
  Katoite           1.02     79.97   78.94  Ca3Al2H12O12
  KMgCl3          -44.27    -23.07   21.20  KMgCl3
  KMgCl3:2H2O     -37.00    -23.07   13.93  KMgCl3:2H2O
  Kyanite          -5.45     10.08   15.53  Al2SiO5
  Lammerite       -84.56    -83.01    1.55  Cu3(AsO4)2
  Larnite          -2.16     36.18   38.34  Ca2SiO4
  Laumontite       -0.89     12.55   13.45  CaAl2Si4O12:4H2O
  Lawrencite      -39.26    -30.23    9.02  FeCl2
  Lawsonite         3.03     25.05   22.02  CaAl2Si2O7(OH)2:H2O
  Lime            -11.29     21.21   32.50  CaO
  Lopezite        -27.84    -45.27  -17.43  K2Cr2O7
  Magnesiochromite -18.32      3.27   21.59  MgCr2O4
  Magnetite         0.03     10.37   10.34  Fe3O4
  Manganite         3.41      3.25   -0.16  MnO(OH)
  Manganosite      -5.24     12.63   17.87  MnO
  Margarite         0.63     41.37   40.74  CaAl4Si2O10(OH)2
  Maximum_Microcline  -2.09     -2.48   -0.39  KAlSi3O8
  Mayenite       -123.87    368.85  492.73  Ca12Al14O33
  Merwinite        -0.91     67.35   68.26  MgCa3(SiO4)2
  Mesolite          4.96     18.39   13.43  Na.676Ca.657Al1.99Si3.01O10:2.647H2O
  Mg              -95.48     26.78  122.26  Mg
  Mg(g)          -115.15     26.78  141.93  Mg
  Mg2V2O7         -24.10    -55.00  -30.90  Mg2V2O7
  MgCl2:2H2O      -28.08    -15.38   12.70  MgCl2:2H2O
  MgCl2:4H2O      -22.66    -15.38    7.29  MgCl2:4H2O
  MgCl2:H2O       -31.41    -15.38   16.03  MgCl2:H2O
  MgOHCl          -15.44      0.41   15.85  MgOHCl
  MgV2O6          -25.36    -71.20  -45.85  MgV2O6
  Minnesotaite    -34.73    -20.94   13.80  Fe3Si4O10(OH)2
  Mn              -59.55     23.21   82.76  Mn
  Mn(OH)2(am)      -2.64     12.63   15.27  Mn(OH)2
  Mn(OH)3          -3.10      3.25    6.34  Mn(OH)3
  MnCl2:2H2O      -22.94    -18.95    3.99  MnCl2:2H2O
  MnCl2:4H2O      -21.70    -18.95    2.75  MnCl2:4H2O
  MnCl2:H2O       -24.47    -18.95    5.52  MnCl2:H2O
  MnO2(gamma)       1.98    -14.14  -16.13  MnO2
  MnV2O6          -22.70    -74.78  -52.08  MnV2O6
  Molysite        -56.28    -42.86   13.42  FeCl3
  Monticellite      1.71     31.17   29.46  CaMgSiO4
  Montmor-Ca       -4.82     -2.51    2.31  Ca.165Mg.33Al1.67Si4O10(OH)2
  Montmor-K        -5.29     -3.34    1.96  K.33Mg.33Al1.67Si4O10(OH)2
  Montmor-Mg       -5.53     -3.33    2.20  Mg.495Al1.67Si4O10(OH)2
  Montmor-Na       -4.88     -2.58    2.30  Na.33Mg.33Al1.67Si4O10(OH)2
  Mordenite        -8.70    -14.05   -5.36  Ca.2895Na.361Al.94Si5.06O12:3.468H2O
  Mordenite-dehy  -23.79    -14.05    9.74  Ca.2895Na.361Al.94Si5.06O12
  Muscovite         0.49     13.85   13.36  KAl3Si3O10(OH)2
  Na              -51.57     15.66   67.24  Na
  Na(g)           -65.02     15.66   80.69  Na
  Na2Cr2O7        -30.55    -40.72  -10.17  Na2Cr2O7
  Na2CrO4         -12.88     -9.99    2.89  Na2CrO4
  Na2O            -46.55     20.75   67.29  Na2O
  Na2SiO3          -7.67     14.50   22.17  Na2SiO3
  Na4SiO4         -35.23     35.25   70.48  Na4SiO4
  Na6Si2O7        -51.62     49.75  101.36  Na6Si2O7
  NaFeO2           -4.94     14.88   19.83  NaFeO2
  Nantokite       -13.84    -20.59   -6.75  CuCl
  Natrolite         0.01     18.33   18.33  Na2Al2Si3O10:2H2O
  Natrosilite      -9.79      8.25   18.05  Na2Si2O5
  Nepheline        -1.41     12.29   13.70  NaAlSiO4
  Niter            -8.20     -8.41   -0.21  KNO3
  NO2(g)          -19.54    -11.22    8.32  NO2
  Nontronite-Ca     4.03     -7.72  -11.74  Ca.165Fe2Al.33Si3.67H2O12
  Nontronite-H      1.48    -11.22  -12.70  H.33Fe2Al.33Si3.67H2O12
  Nontronite-K      3.48     -8.54  -12.02  K.33Fe2Al.33Si3.67H2O12
  Nontronite-Mg     3.24     -8.54  -11.78  Mg.165Fe2Al.33Si3.67H2O12
  Nontronite-Na     3.89     -7.79  -11.69  Na.33Fe2Al.33Si3.67H2O12
  O2(g)           -18.26    -21.15   -2.90  O2
  Okenite          -1.59      8.72   10.31  CaSi2O4(OH)2:H2O
  Oxychloride-Mg   -9.22     16.62   25.83  Mg2Cl(OH)3:4H2O
  Paragonite       -1.16     16.12   17.28  NaAl3Si3O10(OH)2
  Pargasite         3.24    104.63  101.39  NaCa2Al3Mg4Si6O22(OH)2
  Periclase        -5.07     16.20   21.27  MgO
  Phlogopite        8.95     46.14   37.19  KAlMg3Si3O10(OH)2
  Portlandite      -1.29     21.21   22.50  Ca(OH)2
  Prehnite          7.33     40.01   32.68  Ca2Al2Si3O10(OH)2
  Pseudowollastonite   1.03     14.97   13.93  CaSiO3
  Pyrolusite        3.49    -14.14  -17.63  MnO2
  Pyrophyllite     -8.92     -8.66    0.25  Al2Si4O10(OH)2
  Quartz           -2.23     -6.25   -4.02  SiO2
  Rankinite        -0.57     51.15   51.72  Ca3Si2O7
  Rhodonite        -3.28      6.39    9.67  MnSiO3
  Ripidolite-14A  -11.68     48.90   60.58  Mg3Fe2Al2Si3O10(OH)8
  Ripidolite-7A   -15.05     48.90   63.95  Mg3Fe2Al2Si3O10(OH)8
  Sanidine_high    -3.28     -2.48    0.81  KAlSi3O8
  Saponite-Ca       5.81     31.88   26.07  Ca.165Mg3Al.33Si3.67O10(OH)2
  Saponite-H        3.27     28.38   25.11  H.33Mg3Al.33Si3.67O10(OH)2
  Saponite-K        5.26     31.05   25.79  K.33Mg3Al.33Si3.67O10(OH)2
  Saponite-Mg       5.03     31.05   26.03  Mg3.165Al.33Si3.67O10(OH)2
  Saponite-Na       5.68     31.80   26.12  Na.33Mg3Al.33Si3.67O10(OH)2
  Scacchite       -27.66    -18.95    8.71  MnCl2
  Scolecite         3.12     18.80   15.67  CaAl2Si3O10:3H2O
  Sellaite         -7.92    -17.37   -9.45  MgF2
  Sepiolite        -2.83     27.33   30.17  Mg4Si6O15(OH)2:6H2O
  Shcherbinaite   -29.05    -30.51   -1.46  V2O5
  Si             -133.65     14.91  148.56  Si
  Si(g)          -204.57     14.91  219.48  Si
  SiF4(g)         -58.14    -73.39  -15.25  SiF4
  Sillimanite      -6.08     10.08   16.16  Al2SiO5
  SiO2(am)         -3.51     -6.25   -2.74  SiO2
  Smectite-high-Fe-Mg  -5.46     11.74   17.20  Ca.025Na.1K.2Fe.5Fe.2Mg1.15Al1.25Si3.5H2O12
  Smectite-low-Fe-Mg  -4.77      6.07   10.84  Ca.02Na.15K.2Fe.29Fe.16Mg.9Al1.25Si3.75H2O12
  Spinel           -4.93     32.53   37.47  Al2MgO4
  Stilbite         -2.52     -1.74    0.78  Ca1.019Na.136K.006Al2.18Si6.82O18:7.33H2O
  Sylvite          -8.52     -7.69    0.83  KCl
  Tachyhydrite    -58.27    -41.13   17.14  Mg2CaCl6:12H2O
  Talc              2.69     23.62   20.94  Mg3Si4O10(OH)2
  Tarapacaite     -14.13    -14.54   -0.41  K2CrO4
  Tenorite          0.99      8.62    7.62  CuO
  Tephroite        -3.95     19.02   22.97  Mn2SiO4
  Tobermorite-11A   3.29     68.58   65.29  Ca5Si6H11O22.5
  Tobermorite-14A   5.05     68.58   63.53  Ca5Si6H21O27.5
  Tobermorite-9A   -0.16     68.58   68.74  Ca5Si6H6O20
  Todorokite       24.38    -21.45  -45.82  Mn7O12:3H2O
  Tremolite        12.69     73.47   60.79  Ca2Mg5Si8O22(OH)2
  Tridymite        -2.42     -6.25   -3.83  SiO2
  V              -115.77     -9.07  106.70  V
  V2O4            -37.61    -29.09    8.52  V2O4
[...]
   H2VO4-          4.849e-11   4.423e-11   -10.314   -10.354    -0.040     (0)  
   VO2(OH)2-       2.230e-11   2.034e-11   -10.652   -10.692    -0.040     (0)  
   VO(OH)3         6.187e-19   6.187e-19   -18.208   -18.208     0.000     (0)  
   VO2+            4.119e-27   3.757e-27   -26.385   -26.425    -0.040     (0)  
   VO2HPO4-        6.068e-28   5.535e-28   -27.217   -27.257    -0.040     (0)  
   VO2F            1.999e-28   1.999e-28   -27.699   -27.699     0.000     (0)  
   VO2F2-          1.502e-30   1.370e-30   -29.823   -29.863    -0.040     (0)  
   VO2(HPO4)2-3    1.635e-31   7.101e-32   -30.787   -31.149    -0.362     (0)  
   VO2H2PO4        0.000e+00   0.000e+00   -42.924   -42.924     0.000     (0)  
Zn            1.204e-07
   Zn(OH)3-        6.113e-08   5.575e-08    -7.214    -7.254    -0.040     (0)  
   Zn(OH)2         5.474e-08   5.474e-08    -7.262    -7.262     0.000     (0)  
   Zn(OH)4-2       4.523e-09   3.124e-09    -8.345    -8.505    -0.161     (0)  
   ZnOH+           6.324e-11   5.768e-11   -10.199   -10.239    -0.040     (0)  
   ZnPO4-          4.229e-13   3.857e-13   -12.374   -12.414    -0.040     (0)  
   Zn+2            1.534e-13   1.079e-13   -12.814   -12.967    -0.153     (0)  
   Zn(OH)Cl        3.842e-14   3.842e-14   -13.415   -13.415     0.000     (0)  
   ZnHPO4          4.278e-17   4.278e-17   -16.369   -16.369     0.000     (0)  
   ZnF+            3.971e-17   3.622e-17   -16.401   -16.441    -0.040     (0)  
   ZnCl+           1.023e-17   9.333e-18   -16.990   -17.030    -0.040     (0)  
   ZnCl2           3.793e-22   3.793e-22   -21.421   -21.421     0.000     (0)  
   ZnCl3-          7.646e-27   6.974e-27   -26.117   -26.157    -0.040     (0)  
   ZnCl4-2         2.729e-30   1.884e-30   -29.564   -29.725    -0.161     (0)  
   ZnH2PO4+        2.111e-31   1.925e-31   -30.676   -30.715    -0.040     (0)  
   ZnClO4+         0.000e+00   0.000e+00   -76.520   -76.560    -0.040     (0)  

------------------------------Saturation indices-------------------------------

  Phase               SI** log IAP   log K(303 K,   1 atm)

  (VO)3(PO4)2    -149.66   -100.87   48.79  (VO)3(PO4)2
  Afwillite       -12.07     46.93   59.00  Ca3Si2O4(OH)6
  Akermanite       -2.59     41.76   44.35  Ca2MgSi2O7
  Al             -122.67     24.31  146.98  Al
  Al(g)          -172.37     24.31  196.68  Al
  Albite           -6.23     -3.73    2.50  NaAlSi3O8
  Albite_high      -7.52     -3.73    3.78  NaAlSi3O8
  Albite_low       -6.23     -3.73    2.50  NaAlSi3O8
  AlF3            -23.58    -40.96  -17.38  AlF3
  Amesite-14A       3.38     76.22   72.83  Mg4Al4Si2O10(OH)8
  Analcime         -3.79      2.04    5.83  Na.96Al.96Si2.04O6:H2O
  Analcime-dehy   -10.03      2.04   12.07  Na.96Al.96Si2.04O6
  Andalusite       -6.92      8.24   15.16  Al2SiO5
  Andradite         9.56     41.82   32.26  Ca3Fe2(SiO4)3
  Annite          -40.25    -11.71   28.53  KFe3AlSi3O10(OH)2
  Anorthite        -3.90     21.65   25.55  CaAl2(SiO4)2
  Antarcticite    -15.87    -11.78    4.09  CaCl2:6H2O
  Anthophyllite   -13.98     51.02   65.00  Mg7Si8O22(OH)2
  Antigorite       24.04    489.40  465.36  Mg48Si34O85(OH)62
  Arsenolite     -131.22   -150.80  -19.58  As2O3
  As             -100.39    -58.56   41.83  As
  As2O5          -115.37   -113.35    2.02  As2O5
  As4O6(cubi)    -262.30   -301.61  -39.31  As4O6
  As4O6(mono)    -262.06   -301.61  -39.55  As4O6
  Atacamite        -9.20      4.66   13.87  Cu4Cl2(OH)6
  Beidellite-Ca    -8.79     -3.84    4.95  Ca.165Al2.33Si3.67O10(OH)2
  Beidellite-H    -11.17     -7.16    4.02  H.33Al2.33Si3.67O10(OH)2
  Beidellite-K     -9.81     -5.10    4.70  K.33Al2.33Si3.67O10(OH)2
  Beidellite-Mg    -9.59     -4.69    4.90  Mg.165Al2.33Si3.67O10(OH)2
  Beidellite-Na    -9.25     -4.23    5.02  Na.33Al2.33Si3.67O10(OH)2
  Berlinite       -14.66    -22.23   -7.57  AlPO4
  Birnessite       22.82    -62.73  -85.55  Mn8O14:5H2O
  Bischofite      -21.34    -16.95    4.39  MgCl2:6H2O
  Bixbyite          6.93      5.38   -1.55  Mn2O3
  Boehmite          0.26      7.47    7.20  AlO2H
  Brucite          -1.01     14.93   15.94  Mg(OH)2
  Brushite        -16.14     -9.59    6.55  CaHPO4:2H2O
  Ca             -105.98     31.33  137.31  Ca
  Ca(g)          -130.68     31.33  162.01  Ca
  Ca-Al_Pyroxene   -6.45     28.34   34.80  CaAl2SiO6
  Ca2Al2O5:8H2O    -4.43     55.13   59.57  Ca2Al2O5:8H2O
  Ca2Cl2(OH)2:H2O -17.97      8.32   26.29  Ca2Cl2(OH)2:H2O
  Ca2V2O7          -6.79    -46.51  -39.71  Ca2V2O7
  Ca3(AsO4)2      -70.39    -53.04   17.35  Ca3(AsO4)2
  Ca3Al2O6        -35.25     75.24  110.49  Ca3Al2O6
  Ca3V2O8          -8.08    -26.40  -18.32  Ca3V2O8
  Ca4Al2Fe2O10    -40.08     96.92  137.00  Ca4Al2Fe2O10
  Ca4Al2O7:13H2O  -11.91     95.34  107.25  Ca4Al2O7:13H2O
  Ca4Al2O7:19H2O   -8.34     95.34  103.68  Ca4Al2O7:19H2O
  Ca4Cl2(OH)6:13H2O -19.80     48.53   68.33  Ca4Cl2(OH)6:13H2O
  CaAl2O4         -10.54     35.03   45.57  CaAl2O4
  CaAl2O4:10H2O    -2.96     35.03   37.99  CaAl2O4:10H2O
  CaAl4O7         -16.43     49.96   66.40  CaAl4O7
  Carnallite      -30.94    -26.67    4.27  KMgCl3:6H2O
  CaV2O6          -15.25    -66.61  -51.36  CaV2O6
  Celadonite       -5.22      1.86    7.08  KMgAlSi4O10(OH)2
  Chalcedony       -3.03     -6.69   -3.66  SiO2
  Chamosite-7A    -26.95      4.69   31.64  Fe2Al2SiO5(OH)4
  Chloromagnesite -38.27    -16.95   21.33  MgCl2
  Chromite        -31.44    -17.10   14.34  FeCr2O4
  Chrysocolla      -3.77      2.45    6.21  CuSiH4O5
  Chrysotile        1.06     31.42   30.36  Mg3Si2O5(OH)4
  Cl2(g)          -45.94    -43.11    2.83  Cl2
  Claudetite     -131.26   -150.80  -19.55  As2O3
  Clinochlore-14A   4.36     69.53   65.18  Mg5Al2Si3O10(OH)8
  Clinochlore-7A    1.02     69.53   68.51  Mg5Al2Si3O10(OH)8
  Clinoptilolite-Ca -28.86    -36.61   -7.75  Ca1.7335Al3.45Fe.017Si14.533O36:10.922H2O
  Clinoptilolite-dehy-Ca -63.74    -36.61   27.13  Ca1.7335Al3.45Fe.017Si14.533O36
  Clinoptilolite-dehy-K -73.50    -49.89   23.62  K3.467Al3.45Fe.017Si14.533O36
  Clinoptilolite-dehy-Na -67.93    -40.70   27.23  Na3.467Al3.45Fe.017Si14.533O36
  Clinoptilolite-hy-Ca -28.89    -36.61   -7.72  Ca1.7335Al3.45Fe.017Si14.533O36:11.645H2O
  Clinoptilolite-hy-K -38.52    -49.89  -11.36  K3.467Al3.45Fe.017Si14.533O36:7.499H2O
  Clinoptilolite-hy-Na -33.06    -40.70   -7.64  Na3.467Al3.45Fe.017Si14.533O36:10.877H2O
  Clinoptilolite-K -38.64    -49.89  -11.24  K3.467Al3.45Fe.017Si14.533O36:10.922H2O
  Clinoptilolite-Na -33.06    -40.70   -7.64  Na3.467Al3.45Fe.017Si14.533O36:10.922H2O
  Clinozoisite      0.83     42.53   41.70  Ca2Al3Si3O12(OH)
  Coesite          -3.56     -6.69   -3.13  SiO2
  Cordierite_anhyd -23.87     26.28   50.16  Mg2Al4Si5O18
  Cordierite_hydr -21.44     26.28   47.72  Mg2Al4Si5O18:H2O
  Corundum         -2.56     14.93   17.50  Al2O3
  Cr              -87.48      9.18   96.66  Cr
  CrCl3           -72.84    -55.48   17.36  CrCl3
  CrF3            -47.18    -56.08   -8.90  CrF3
  CrF4            -84.14    -96.58  -12.45  CrF4
  Cristobalite(alpha)  -3.30     -6.69   -3.39  SiO2
  Cristobalite(beta)  -3.73     -6.69   -2.96  SiO2
  CrO2            -13.14    -32.02  -18.87  CrO2
  CrO3            -29.11    -32.69   -3.58  CrO3
  Cronstedtite-7A -24.09     -8.66   15.43  Fe2Fe2SiO5(OH)4
  Cu              -10.48     20.36   30.84  Cu
  Cu(g)           -61.61     20.36   81.97  Cu
  Cu3(PO4)2       -19.76    -31.98  -12.22  Cu3(PO4)2
  Cu3(PO4)2:3H2O  -21.51    -31.98  -10.48  Cu3(PO4)2:3H2O
  CuCl2           -26.32    -22.75    3.57  CuCl2
  CuCr2O4         -21.59     -6.19   15.40  CuCr2O4
  CuF             -26.79    -19.71    7.08  CuF
  CuF2            -22.53    -23.15   -0.62  CuF2
  CuF2:2H2O       -18.60    -23.15   -4.55  CuF2:2H2O
  Cuprite          -5.31     -7.13   -1.82  Cu2O
  Daphnite-14A    -64.53    -14.02   50.51  Fe5AlAlSi3O10(OH)8
  Daphnite-7A     -67.87    -14.02   53.85  Fe5AlAlSi3O10(OH)8
  Delafossite       3.72     -2.77   -6.49  CuFeO2
  Diaspore          0.66      7.47    6.81  AlHO2
  Dicalcium_silicate  -2.94     33.52   36.46  Ca2SiO4
  Diopside          1.18     21.66   20.48  CaMgSi2O6
  Dioptase         -3.54      2.45    5.98  CuSiO2(OH)2
  Enstatite        -2.79      8.24   11.03  MgSiO3
  Epidote           4.27     35.86   31.59  Ca2FeAl2Si3O12OH
  Epidote-ord       4.28     35.86   31.58  FeCa2Al2(OH)(SiO4)3
  Eskolaite       -22.36    -31.70   -9.33  Cr2O3
  F2(g)           -98.02    -43.51   54.51  F2
  Fayalite        -28.84    -10.24   18.59  Fe2SiO4
  Fe              -48.43      9.45   57.88  Fe
  Fe(OH)2         -15.38     -1.78   13.60  Fe(OH)2
  Fe(OH)3          -4.59      0.79    5.38  Fe(OH)3
  FeF2            -31.47    -34.06   -2.59  FeF2
  FeF3            -28.33    -47.63  -19.30  FeF3
  FeO             -14.97     -1.78   13.20  FeO
  Ferrite-Ca        1.00     21.69   20.68  CaFe2O4
  Ferrite-Cu        1.09     10.72    9.63  CuFe2O4
  Ferrite-Dicalcium -13.55     41.79   55.34  Ca2Fe2O5
  Ferrite-Mg       -3.64     16.52   20.16  MgFe2O4
  Ferrite-Zn        0.65     11.65   11.01  ZnFe2O4
  Ferrosilite     -15.70     -8.47    7.23  FeSiO3
  FeV2O4         -324.38    -49.12  275.26  FeV2O4
  Fluorapatite     20.74     -4.71  -25.45  Ca5(PO4)3F
  Fluorite         -2.14    -12.18  -10.03  CaF2
  Forsterite       -4.00     23.18   27.18  Mg2SiO4
  Foshagite        -4.36     60.34   64.70  Ca4Si3O9(OH)2:0.5H2O
  Ga              -46.02     44.37   90.40  Ga
  Gehlenite        -6.28     48.45   54.72  Ca2Al2SiO7
  Gibbsite          0.04      7.47    7.42  Al(OH)3
  Gismondine        1.59     43.31   41.72  Ca2Al4Si4O16:9H2O
  Goethite          0.45      0.79    0.34  FeOOH
  Greenalite      -40.78    -18.71   22.07  Fe3Si2O5(OH)4
  Grossular         4.71     55.17   50.45  Ca3Al2(SiO4)3
  Gyrolite         -2.41     20.14   22.55  Ca2Si3O7(OH)2:1.5H2O
  H2(g)           -30.91    -34.03   -3.11  H2
  H2O(g)           -1.45     -0.00    1.45  H2O
  Halite           -8.64     -7.07    1.57  NaCl
  Hatrurite       -18.40     53.62   72.02  Ca3SiO5
  Hausmannite       8.64     17.96    9.33  Mn3O4
  HCl(g)          -22.01    -15.94    6.07  HCl
  Hedenbergite    -14.20      4.95   19.15  CaFe(SiO3)2
  Hematite          1.91      1.58   -0.32  Fe2O3
  Hercynite       -14.59     13.15   27.74  FeAl2O4
  Hillebrandite    -2.63     33.52   36.15  Ca2SiO3(OH)2:0.17H2O
  Hopeite         -18.53    -29.19  -10.66  Zn3(PO4)2:4H2O
  Hydrophilite    -23.27    -11.78   11.49  CaCl2
  Hydroxylapatite  15.25     11.43   -3.82  Ca5(OH)(PO4)3
  Ice              -0.16     -0.00    0.16  H2O
  Illite           -7.13      1.22    8.35  K0.6Mg0.25Al1.8Al0.5Si3.5O10(OH)2
  Jadeite          -5.10      2.96    8.05  NaAl(SiO3)2
  K               -57.94     11.83   69.78  K
  K(g)            -68.27     11.83   80.11  K
  K-Feldspar       -5.93     -6.38   -0.45  KAlSi3O8
  K2O             -70.29     12.44   82.73  K2O
  Kalsilite        -3.52      7.00   10.52  KAlSiO4
  Kaolinite        -4.70      1.55    6.25  Al2Si2O5(OH)4
  Karelianite     -56.80    -47.34    9.46  V2O3
  Katoite          -3.71     75.24   78.94  Ca3Al2H12O12
  KMgCl3          -47.51    -26.67   20.84  KMgCl3
  KMgCl3:2H2O     -40.39    -26.67   13.73  KMgCl3:2H2O
  Kyanite          -6.66      8.24   14.90  Al2SiO5
  Lammerite       -87.50    -85.94    1.55  Cu3(AsO4)2
  Larnite          -4.21     33.52   37.73  Ca2SiO4
  Laumontite       -4.67      8.27   12.95  CaAl2Si4O12:4H2O
  Lawrencite      -42.45    -33.66    8.79  FeCl2
  Lawsonite         0.30     21.65   21.36  CaAl2Si2O7(OH)2:H2O
  Lime            -11.87     20.10   31.98  CaO
  Lopezite        -35.73    -52.94  -17.21  K2Cr2O7
  Magnesiochromite -21.16     -0.39   20.77  MgCr2O4
  Magnetite        -9.95     -0.19    9.75  Fe3O4
  Manganite         2.86      2.69   -0.16  MnO(OH)
  Manganosite      -4.97     12.58   17.55  MnO
  Margarite        -2.74     36.58   39.33  CaAl4Si2O10(OH)2
  Maximum_Microcline  -5.93     -6.38   -0.45  KAlSi3O8
  Mayenite       -136.01    345.74  481.76  Ca12Al14O33
  Merwinite        -5.23     61.86   67.09  MgCa3(SiO4)2
  Mesolite          0.98     13.92   12.94  Na.676Ca.657Al1.99Si3.01O10:2.647H2O
  Mg              -94.08     26.16  120.24  Mg
  Mg(g)          -113.35     26.16  139.51  Mg
  Mg2V2O7         -25.94    -56.84  -30.90  Mg2V2O7
  MgCl2:2H2O      -29.39    -16.95   12.45  MgCl2:2H2O
  MgCl2:4H2O      -24.11    -16.95    7.16  MgCl2:4H2O
  MgCl2:H2O       -32.65    -16.95   15.70  MgCl2:H2O
  MgOHCl          -16.53     -1.01   15.53  MgOHCl
  MgV2O6          -25.93    -71.78  -45.85  MgV2O6
  Minnesotaite    -45.60    -32.09   13.51  Fe3Si4O10(OH)2
  Mn              -57.60     23.81   81.40  Mn
  Mn(OH)2(am)      -2.43     12.58   15.01  Mn(OH)2
  Mn(OH)3          -3.65      2.69    6.34  Mn(OH)3
  Mn3(PO4)2       -22.47    -21.65    0.82  Mn3(PO4)2
  MnCl2:2H2O      -23.19    -19.30    3.89  MnCl2:2H2O
  MnCl2:4H2O      -22.02    -19.30    2.72  MnCl2:4H2O
  MnCl2:H2O       -24.69    -19.30    5.39  MnCl2:H2O
  MnHPO4           -4.17    -17.12  -12.95  MnHPO4
  MnO2(gamma)       1.48    -14.65  -16.13  MnO2
  MnV2O6          -22.06    -74.13  -52.08  MnV2O6
  Molysite        -60.03    -47.03   13.00  FeCl3
  Monticellite     -0.59     28.35   28.93  CaMgSiO4
  Montmor-Ca       -8.08     -6.05    2.04  Ca.165Mg.33Al1.67Si4O10(OH)2
  Montmor-K        -9.03     -7.31    1.72  K.33Mg.33Al1.67Si4O10(OH)2
  Montmor-Mg       -8.82     -6.90    1.92  Mg.495Al1.67Si4O10(OH)2
  Montmor-Na       -8.48     -6.44    2.04  Na.33Mg.33Al1.67Si4O10(OH)2
  Mordenite       -12.50    -17.81   -5.31  Ca.2895Na.361Al.94Si5.06O12:3.468H2O
  Mordenite-dehy  -27.31    -17.81    9.50  Ca.2895Na.361Al.94Si5.06O12
  Muscovite        -4.16      8.55   12.70  KAl3Si3O10(OH)2
  Na              -51.72     14.48   66.21  Na
  Na(g)           -64.88     14.48   79.37  Na
  Na2Cr2O7        -37.52    -47.64  -10.11  Na2Cr2O7
  Na2CrO4         -17.79    -14.95    2.84  Na2CrO4
  Na2O            -48.60     17.74   66.34  Na2O
  Na2SiO3         -10.90     11.05   21.95  Na2SiO3
  Na4SiO4         -40.80     28.79   69.60  Na4SiO4
  Na6Si2O7        -60.24     39.84  100.09  Na6Si2O7
  NaFeO2           -9.72      9.66   19.39  NaFeO2
  Nantokite       -12.87    -19.50   -6.64  CuCl
  Natrolite        -5.22     12.60   17.82  Na2Al2Si3O10:2H2O
  Natrosilite     -13.55      4.36   17.91  Na2Si2O5
  Nepheline        -3.69      9.65   13.34  NaAlSiO4
  Niter            -9.47     -9.59   -0.12  KNO3
  NO2(g)          -18.23    -10.19    8.04  NO2
  Nontronite-Ca    -5.34    -17.19  -11.85  Ca.165Fe2Al.33Si3.67H2O12
  Nontronite-H     -7.72    -20.50  -12.78  H.33Fe2Al.33Si3.67H2O12
  Nontronite-K     -6.36    -18.45  -12.09  K.33Fe2Al.33Si3.67H2O12
  Nontronite-Mg    -6.14    -18.04  -11.90  Mg.165Fe2Al.33Si3.67H2O12
  Nontronite-Na    -5.80    -17.58  -11.77  Na.33Fe2Al.33Si3.67H2O12
  O2(g)           -19.53    -22.45   -2.93  O2
  Okenite          -3.53      6.72   10.25  CaSi2O4(OH)2:H2O
  Oxychloride-Mg  -11.90     13.93   25.83  Mg2Cl(OH)3:4H2O
  P              -131.08     -1.63  129.45  P
  Paragonite       -5.34     11.20   16.54  NaAl3Si3O10(OH)2
  Pargasite        -7.93     91.07   99.01  NaCa2Al3Mg4Si6O22(OH)2
  Periclase        -5.93     14.93   20.87  MgO
  Phlogopite        2.07     38.42   36.35  KAlMg3Si3O10(OH)2
  Portlandite      -2.05     20.10   22.15  Ca(OH)2
  Prehnite          3.23     35.07   31.84  Ca2Al2Si3O10(OH)2
  Pseudowollastonite  -0.31     13.41   13.72  CaSiO3
  Pyrolusite        2.76    -14.65  -17.41  MnO2
  Pyrophyllite    -11.81    -11.83   -0.02  Al2Si4O10(OH)2
  Quartz           -2.76     -6.69   -3.93  SiO2
  Rankinite        -3.97     46.93   50.90  Ca3Si2O7
  Rhodonite        -3.60      5.89    9.49  MnSiO3
  Ripidolite-14A  -22.91     36.11   59.02  Mg3Fe2Al2Si3O10(OH)8
  Ripidolite-7A   -26.25     36.11   62.36  Mg3Fe2Al2Si3O10(OH)8
  Sanidine_high    -7.09     -6.38    0.71  KAlSi3O8
  Saponite-Ca       0.53     26.03   25.51  Ca.165Mg3Al.33Si3.67O10(OH)2
  Saponite-H       -1.86     22.72   24.57  H.33Mg3Al.33Si3.67O10(OH)2
  Saponite-K       -0.49     24.77   25.26  K.33Mg3Al.33Si3.67O10(OH)2
  Saponite-Mg      -0.28     25.18   25.46  Mg3.165Al.33Si3.67O10(OH)2
  Saponite-Na       0.06     25.64   25.58  Na.33Mg3Al.33Si3.67O10(OH)2
  Scacchite       -27.81    -19.30    8.51  MnCl2
  Scolecite        -0.15     14.96   15.12  CaAl2Si3O10:3H2O
  Sellaite         -7.86    -17.35   -9.49  MgF2
  Sepiolite       -10.14     19.60   29.74  Mg4Si6O15(OH)2:6H2O
  Shcherbinaite   -28.26    -29.82   -1.56  V2O5
  Si             -130.44     15.76  146.21  Si
  Si(g)          -200.15     15.76  215.91  Si
  SiF4(g)         -55.91    -71.25  -15.34  SiF4
  Sillimanite      -7.27      8.24   15.51  Al2SiO5
  SiO2(am)         -4.01     -6.69   -2.68  SiO2
  Smectite-high-Fe-Mg -11.66      5.00   16.66  Ca.025Na.1K.2Fe.5Fe.2Mg1.15Al1.25Si3.5H2O12
  Smectite-low-Fe-Mg -10.18      0.27   10.45  Ca.02Na.15K.2Fe.29Fe.16Mg.9Al1.25Si3.75H2O12
  Spinel           -6.52     29.86   36.39  Al2MgO4
  Stilbite         -8.18     -7.62    0.56  Ca1.019Na.136K.006Al2.18Si6.82O18:7.33H2O
  Strengite       -17.39    -28.90  -11.51  FePO4:2H2O
  Sylvite         -10.60     -9.72    0.88  KCl
  Tachyhydrite    -62.82    -45.67   17.14  Mg2CaCl6:12H2O
  Talc             -2.49     18.04   20.53  Mg3Si4O10(OH)2
  Tarapacaite     -19.89    -20.25   -0.36  K2CrO4
  Tenorite          1.69      9.14    7.45  CuO
  Tephroite        -4.07     18.47   22.53  Mn2SiO4
  Tobermorite-11A  -4.14     60.37   64.51  Ca5Si6H11O22.5
  Tobermorite-14A  -2.53     60.37   62.90  Ca5Si6H21O27.5
  Tobermorite-9A   -7.47     60.37   67.85  Ca5Si6H6O20
  Todorokite       20.09    -25.73  -45.82  Mn7O12:3H2O
  Tremolite         1.67     61.36   59.69  Ca2Mg5Si8O22(OH)2
  Tridymite        -2.95     -6.69   -3.74  SiO2
  V              -111.69     -6.83  104.86  V
  V2O4            -35.85    -27.65    8.20  V2O4
  V3O5            -73.93    -61.17   12.76  V3O5
  V4O7            -92.92    -74.99   17.93  V4O7
  Vivianite       -60.00    -64.72   -4.72  Fe3(PO4)2:8H2O
  Wairakite        -8.92      8.27   17.19  CaAl2Si4O10(OH)4
  Whitlockite       5.60      0.92   -4.69  Ca3(PO4)2
  Wollastonite     -0.08     13.41   13.49  CaSiO3
  Wustite         -13.50     -1.41   12.09  Fe.947O
  Xonotlite        -9.76     80.48   90.24  Ca6Si6O17(OH)2
  Zincite          -0.86     10.07   10.93  ZnO
  Zn              -46.17     21.29   67.46  Zn
  Zn(ClO4)2:6H2O -148.36   -142.71    5.66  Zn(ClO4)2:6H2O
  Zn(g)           -62.39     21.29   83.68  Zn
  Zn(NO3)2:6H2O   -25.03    -21.55    3.48  Zn(NO3)2:6H2O
  Zn(OH)2(beta)    -1.61     10.07   11.68  Zn(OH)2
  Zn(OH)2(epsilon)  -1.34     10.07   11.41  Zn(OH)2
  Zn(OH)2(gamma)   -1.82     10.07   11.88  Zn(OH)2
  Zn2(OH)3Cl      -11.10      4.19   15.29  Zn2(OH)3Cl
  Zn2SiO4          -0.04     13.44   13.48  Zn2SiO4
  Zn3(AsO4)2      -92.46    -83.15    9.31  Zn3(AsO4)2
  Zn5(NO3)2(OH)8  -23.95     18.72   42.67  Zn5(NO3)2(OH)8
  ZnCl2           -28.67    -21.81    6.86  ZnCl2
  ZnCr2O4         -12.50     -5.26    7.24  ZnCr2O4
  ZnF2            -21.54    -22.22   -0.68  ZnF2
  Zoisite           0.80     42.53   41.73  Ca2Al3(SiO4)3OH

**For a gas, SI = log10(fugacity). Fugacity = pressure * phi / 1 atm.
  For ideal gases, phi = 1.

------------------
End of simulation.
------------------

------------------------------------
Reading input data for simulation 3.
------------------------------------

-------------------------------
End of Run after 0.836 Seconds.
-------------------------------

