   Input file: C:\Users\jorgeft\Desktop\master thesis\selected_values\simulation1.pqi
  Output file: C:\Users\jorgeft\Desktop\master thesis\selected_values\simulation1.pqo
Database file: C:\Program Files (x86)\USGS\Phreeqc Interactive 3.4.0-12927\database\phreeqc.dat

------------------
Reading data base.
------------------

	SOLUTION_MASTER_SPECIES
	SOLUTION_SPECIES
	PHASES
	EXCHANGE_MASTER_SPECIES
	EXCHANGE_SPECIES
	SURFACE_MASTER_SPECIES
	SURFACE_SPECIES
	RATES
	END
------------------------------------
Reading input data for simulation 1.
------------------------------------

	DATABASE C:\Program Files (x86)\USGS\Phreeqc Interactive 3.4.0-12927\database\phreeqc.dat
	USER_PUNCH 1
	headings Sample_Ref	EC_(uS/cm) TDS_g/kg-solution alk_mg/L
	start
	10 PUNCH Description
	25 PUNCH SC
	32 PUNCH (RHO * SOLN_VOL - TOT("water")) * 1000 / (RHO * SOLN_VOL)
	40 PUNCH alk * ((50.05) / 1000)
	end
	SELECTED_OUTPUT 1
	file simulation1.txt
	charge_balance
	ionic_strength
	temperature
	percent_error
	alkalinity
	totals	Na	K	Mg	Ca	F	Cl	S(+6)	Br	N(+5)	P(5) 	Al	V	Cr	Mn	Fe	Cu	Zn	Ga	As	Si
	molalities OH- HCO3- # add here other aqueous species of interest
	saturation_indices  Fe(OH)2 Fe(OH)3 Gibbsite Goethite Pyrolusite Kaolinite Diaspore Magnetite Boehmite Cuprite
	END
WARNING: Did not find master species, P(5).
WARNING: Did not find master species, V.
WARNING: Did not find master species, Cr.
WARNING: Did not find master species, Ga.
WARNING: Did not find master species, As.
WARNING: Did not find phase, Fe(OH)2.
WARNING: Did not find phase, Fe(OH)3.
WARNING: Did not find phase, Diaspore.
WARNING: Did not find phase, Magnetite.
WARNING: Did not find phase, Boehmite.
WARNING: Did not find phase, Cuprite.
------------------
End of simulation.
------------------

------------------------------------
Reading input data for simulation 2.
------------------------------------

	SOLUTION_SPREAD
	units mg/l
	Number 	Description	pH	pe	Temp	Na	K	Mg	Ca	F	Cl	S(+6)	Br	N(+5)	P(5) 	Al	V	Cr	Mn	Fe	Cu	Zn	Ga	As	Si
	1	1WBR1	11.98	4	25.6	4.466E+02	1.016E+00	2.989E-04	7.263E+01	1.176E+00	3.264E+00	0.000E+00	0.000E+00	7.149E-01	0.000E+00	1.345E+02	5.041E-01	5.775E-02	6.179E-03	3.164E-05	1.263E-01	7.538E-02	1.853E-01	1.191E-02	2.13E-01
	2	1WBRA2	11.76	4	25.6	4.305E+02	3.910E+00	2.989E-04	5.956E+01	5.423E-01	9.857E+00	0.000E+00	0.000E+00	7.416E-01	0.000E+00	1.008E+02	8.033E-01	8.434E-02	4.598E-05	7.710E-01	3.650E-02	1.114E-02	1.549E-01	3.148E-02	1.26E+01
	3	1WBRS1	11.93	4	29.3	4.479E+02	9.758E-01	2.989E-04	5.678E+01	1.489E+00	3.110E+00	0.000E+00	0.000E+00	3.200E+00	0.000E+00	1.303E+02	8.851E-01	4.984E-02	4.598E-05	2.602E-02	6.330E-03	9.077E-03	1.927E-01	3.106E-02	1.69E+01
	4	1WBRG2 	10.92	4	30.2	7.317E+02	1.526E+00	3.778E-02	5.092E+02	4.666E-01	4.188E+00	7.585E+00	0.000E+00	7.131E-01	0.000E+00	2.312E-01	1.404E-01	4.518E-02	4.598E-05	2.473E-01	2.249E-02	1.791E-02	2.140E-02	3.145E-05	1.05E+00
	5	2WBR1	11.82	4	29.8	2.411E+02	5.526E-01	2.989E-04	3.652E+01	6.388E-01	2.062E+00	0.000E+00	0.000E+00	7.031E-01	0.000E+00	6.291E+01	3.541E-01	2.387E-02	4.598E-05	3.164E-05	4.628E-03	9.593E-03	5.921E-02	9.287E-03	2.00E+00
	6	2WBRA1	11.54	4	30.1	2.695E+02	2.429E+00	2.989E-04	4.438E+01	3.151E+00	2.970E+00	0.000E+00	3.374E+00	7.437E-01	0.000E+00	6.661E+01	5.566E-01	4.852E-02	6.018E-03	2.293E+00	9.681E-02	5.025E-02	6.954E-02	2.424E-02	8.96E+00
	7	2WBRS1 	11.76	4	30.1	2.222E+02	6.034E-01	3.074E-02	4.074E+01	6.606E-01	2.205E+00	0.000E+00	0.000E+00	7.062E-01	0.000E+00	5.003E+01	5.876E-01	1.405E-02	4.598E-05	8.930E-01	4.000E-03	6.701E-03	4.195E-02	2.754E-02	1.08E+01
	8	2WBRG1	10.94	4	29.6	2.856E+02	6.873E-01	3.599E-02	4.981E+02	5.377E-01	2.058E+00	5.151E+00	0.000E+00	7.048E-01	0.000E+00	8.083E-02	1.400E-01	1.164E-02	4.598E-05	2.619E-01	6.767E-03	1.588E-02	1.259E-02	3.145E-05	1.03E+01
	9	3WBR2	11.69	4	30.2	1.558E+02	4.365E-01	2.989E-04	3.865E+01	3.706E-01	1.772E+00	0.000E+00	0.000E+00	7.677E-01	0.000E+00	3.401E+01	3.290E-01	2.505E-02	6.990E-03	6.816E-02	1.293E-01	7.041E-02	1.835E-02	3.145E-05	1.15E+01
	10	3WBRA2	11.33	4	29.6	1.674E+02	1.425E+00	4.053E-02	3.938E+01	4.710E-01	2.153E+00	0.000E+00	3.506E+00	9.940E-01	0.000E+00	3.634E+01	3.900E-01	4.029E-02	6.621E-03	1.002E+01	1.029E-02	2.066E-02	3.030E-02	1.754E-02	1.23E+01
	11	3WBRS2 	11.61	4	31.4	1.565E+02	4.925E-01	5.958E-02	4.246E+01	3.538E-01	2.560E+00	0.000E+00	0.000E+00	7.920E-01	0.000E+00	3.705E+01	3.459E-01	2.246E-02	4.598E-05	3.425E+00	7.798E-03	1.496E-02	1.904E-02	1.686E-02	1.51E-01
	12	3WBRG3 	11.41	4	29.7	1.115E+02	3.457E-01	2.989E-04	9.962E+01	4.344E-01	9.533E+00	5.072E-01	0.000E+00	8.021E-01	1.710E+00	4.304E+00	1.301E-01	4.955E-03	4.598E-05	4.373E-02	4.805E-03	1.232E-02	2.319E-02	3.145E-05	2.24E+01
	13	4WBR2	11.6	4	29.9	1.208E+02	3.831E-01	2.989E-04	2.827E+01	3.398E-01	1.814E+00	0.000E+00	0.000E+00	7.682E-01	0.000E+00	2.532E+01	2.740E-01	6.597E-03	4.823E-03	1.469E-01	9.543E-02	5.282E-02	1.028E-02	9.153E-03	2.50E+01
	14	4WBRA2	11.29	4	29.3	1.159E+02	1.093E+00	1.645E-01	1.577E+01	3.901E-01	2.051E+00	0.000E+00	3.438E+00	7.978E-01	0.000E+00	2.540E+01	2.494E-01	4.258E-02	1.708E-02	1.755E+01	3.138E-02	4.212E-02	2.211E-02	1.740E-02	3.29E+00
	15	4WBRS1 	11.35	4	30.7	1.232E+02	3.781E-01	2.989E-04	2.660E+01	2.959E-01	1.813E+00	0.000E+00	0.000E+00	7.700E-01	0.000E+00	2.600E+01	2.121E-01	1.242E-02	4.598E-05	3.394E+00	2.782E-02	2.112E-02	9.907E-03	9.741E-03	2.11E+01
	16	4WBRG2 	11.55	4	28.1	7.201E+01	2.514E-01	2.989E-04	5.905E+01	2.747E-01	1.525E+00	0.000E+00	0.000E+00	7.647E-01	2.655E+00	1.039E+01	9.965E-02	3.725E-05	6.581E-03	3.164E-05	9.460E-02	6.479E-02	1.967E-02	3.145E-05	1.61E+01
	17	5WBR2	11.52	4	30.4	1.055E+02	3.471E-01	2.989E-04	1.803E+01	3.897E-01	1.605E+00	0.000E+00	3.256E+00	0.000E+00	0.000E+00	2.237E+01	2.348E-01	5.353E-03	4.598E-05	4.892E-01	3.896E-03	9.882E-03	7.873E-03	1.627E-02	2.07E+01
	18	5WBRA2	11.23	4	30.2	9.749E+01	2.800E+00	1.053E-01	1.603E+01	4.317E-01	1.780E+00	0.000E+00	3.279E+00	7.792E-01	0.000E+00	2.156E+01	1.809E-01	4.231E-02	1.700E-02	1.932E+01	9.744E-03	1.216E-01	1.988E-02	1.154E-02	6.74E+00
	19	5WBRS2 	11.32	4	30.9	1.133E+02	2.909E-01	4.357E-02	1.461E+01	4.898E-01	1.821E+00	0.000E+00	3.389E+00	7.768E-01	0.000E+00	2.677E+01	1.508E-01	1.464E-02	4.598E-05	6.748E+00	4.460E-03	2.069E-02	1.113E-02	8.853E-03	2.53E+00
	20	5WBRG2 	11.47	4	30.3	5.698E+01	2.175E-01	2.989E-04	7.428E+01	4.987E-01	1.470E+00	0.000E+00	0.000E+00	7.947E-01	3.935E+00	1.313E+01	7.382E-02	3.725E-05	4.598E-05	3.164E-05	4.835E-03	7.875E-03	1.513E-02	3.145E-05	6.90E-01
	END
WARNING: Could not find element in database, As.
	Concentration is set to zero.
WARNING: Could not find element in database, Cr.
	Concentration is set to zero.
WARNING: Could not find element in database, Ga.
	Concentration is set to zero.
WARNING: Could not find element in database, P(5).
	Concentration is set to zero.
WARNING: Could not find element in database, V.
	Concentration is set to zero.
WARNING: Could not find element in database, As.
	Concentration is set to zero.
WARNING: Could not find element in database, Cr.
	Concentration is set to zero.
WARNING: Could not find element in database, Ga.
	Concentration is set to zero.
WARNING: Could not find element in database, P(5).
	Concentration is set to zero.
WARNING: Could not find element in database, V.
	Concentration is set to zero.
WARNING: Could not find element in database, As.
	Concentration is set to zero.
WARNING: Could not find element in database, Cr.
	Concentration is set to zero.
WARNING: Could not find element in database, Ga.
	Concentration is set to zero.
WARNING: Could not find element in database, P(5).
	Concentration is set to zero.
WARNING: Could not find element in database, V.
	Concentration is set to zero.
WARNING: Could not find element in database, As.
	Concentration is set to zero.
WARNING: Could not find element in database, Cr.
	Concentration is set to zero.
WARNING: Could not find element in database, Ga.
	Concentration is set to zero.
WARNING: Could not find element in database, P(5).
	Concentration is set to zero.
WARNING: Could not find element in database, V.
	Concentration is set to zero.
WARNING: Could not find element in database, As.
	Concentration is set to zero.
WARNING: Could not find element in database, Cr.
	Concentration is set to zero.
WARNING: Could not find element in database, Ga.
	Concentration is set to zero.
WARNING: Could not find element in database, P(5).
	Concentration is set to zero.
WARNING: Could not find element in database, V.
	Concentration is set to zero.
WARNING: Could not find element in database, As.
	Concentration is set to zero.
WARNING: Could not find element in database, Cr.
	Concentration is set to zero.
WARNING: Could not find element in database, Ga.
	Concentration is set to zero.
WARNING: Could not find element in database, P(5).
	Concentration is set to zero.
WARNING: Could not find element in database, V.
	Concentration is set to zero.
WARNING: Could not find element in database, As.
	Concentration is set to zero.
WARNING: Could not find element in database, Cr.
	Concentration is set to zero.
WARNING: Could not find element in database, Ga.
	Concentration is set to zero.
WARNING: Could not find element in database, P(5).
	Concentration is set to zero.
WARNING: Could not find element in database, V.
	Concentration is set to zero.
WARNING: Could not find element in database, As.
	Concentration is set to zero.
WARNING: Could not find element in database, Cr.
	Concentration is set to zero.
WARNING: Could not find element in database, Ga.
	Concentration is set to zero.
WARNING: Could not find element in database, P(5).
	Concentration is set to zero.
WARNING: Could not find element in database, V.
	Concentration is set to zero.
WARNING: Could not find element in database, As.
	Concentration is set to zero.
WARNING: Could not find element in database, Cr.
	Concentration is set to zero.
WARNING: Could not find element in database, Ga.
	Concentration is set to zero.
WARNING: Could not find element in database, P(5).
	Concentration is set to zero.
WARNING: Could not find element in database, V.
	Concentration is set to zero.
WARNING: Could not find element in database, As.
	Concentration is set to zero.
WARNING: Could not find element in database, Cr.
	Concentration is set to zero.
WARNING: Could not find element in database, Ga.
	Concentration is set to zero.
WARNING: Could not find element in database, P(5).
	Concentration is set to zero.
WARNING: Could not find element in database, V.
	Concentration is set to zero.
WARNING: Could not find element in database, As.
	Concentration is set to zero.
WARNING: Could not find element in database, Cr.
	Concentration is set to zero.
WARNING: Could not find element in database, Ga.
	Concentration is set to zero.
WARNING: Could not find element in database, P(5).
	Concentration is set to zero.
WARNING: Could not find element in database, V.
	Concentration is set to zero.
WARNING: Could not find element in database, As.
	Concentration is set to zero.
WARNING: Could not find element in database, Cr.
	Concentration is set to zero.
WARNING: Could not find element in database, Ga.
	Concentration is set to zero.
WARNING: Could not find element in database, P(5).
	Concentration is set to zero.
WARNING: Could not find element in database, V.
	Concentration is set to zero.
WARNING: Could not find element in database, As.
	Concentration is set to zero.
WARNING: Could not find element in database, Cr.
	Concentration is set to zero.
WARNING: Could not find element in database, Ga.
	Concentration is set to zero.
WARNING: Could not find element in database, P(5).
	Concentration is set to zero.
WARNING: Could not find element in database, V.
	Concentration is set to zero.
WARNING: Could not find element in database, As.
	Concentration is set to zero.
WARNING: Could not find element in database, Cr.
	Concentration is set to zero.
WARNING: Could not find element in database, Ga.
	Concentration is set to zero.
WARNING: Could not find element in database, P(5).
	Concentration is set to zero.
WARNING: Could not find element in database, V.
	Concentration is set to zero.
WARNING: Could not find element in database, As.
	Concentration is set to zero.
WARNING: Could not find element in database, Cr.
	Concentration is set to zero.
WARNING: Could not find element in database, Ga.
	Concentration is set to zero.
WARNING: Could not find element in database, P(5).
	Concentration is set to zero.
WARNING: Could not find element in database, V.
	Concentration is set to zero.
WARNING: Could not find element in database, As.
	Concentration is set to zero.
WARNING: Could not find element in database, Cr.
	Concentration is set to zero.
WARNING: Could not find element in database, Ga.
	Concentration is set to zero.
WARNING: Could not find element in database, P(5).
	Concentration is set to zero.
WARNING: Could not find element in database, V.
	Concentration is set to zero.
WARNING: Could not find element in database, As.
	Concentration is set to zero.
WARNING: Could not find element in database, Cr.
	Concentration is set to zero.
WARNING: Could not find element in database, Ga.
	Concentration is set to zero.
WARNING: Could not find element in database, P(5).
	Concentration is set to zero.
WARNING: Could not find element in database, V.
	Concentration is set to zero.
WARNING: Could not find element in database, As.
	Concentration is set to zero.
WARNING: Could not find element in database, Cr.
	Concentration is set to zero.
WARNING: Could not find element in database, Ga.
	Concentration is set to zero.
WARNING: Could not find element in database, P(5).
	Concentration is set to zero.
WARNING: Could not find element in database, V.
	Concentration is set to zero.
WARNING: Could not find element in database, As.
	Concentration is set to zero.
WARNING: Could not find element in database, Cr.
	Concentration is set to zero.
WARNING: Could not find element in database, Ga.
	Concentration is set to zero.
WARNING: Could not find element in database, P(5).
	Concentration is set to zero.
WARNING: Could not find element in database, V.
	Concentration is set to zero.
WARNING: Could not find element in database, As.
	Concentration is set to zero.
WARNING: Could not find element in database, Cr.
	Concentration is set to zero.
WARNING: Could not find element in database, Ga.
	Concentration is set to zero.
WARNING: Could not find element in database, P(5).
	Concentration is set to zero.
WARNING: Could not find element in database, V.
	Concentration is set to zero.
-------------------------------------------
Beginning of initial solution calculations.
-------------------------------------------

Initial solution 1.	 1WBR1 

-----------------------------Solution composition------------------------------

	Elements           Molality       Moles

	Al                4.988e-03   4.988e-03
	Ca                1.813e-03   1.813e-03
	Cl                9.213e-05   9.213e-05
	Cu                1.989e-06   1.989e-06
	F                 6.194e-05   6.194e-05
	Fe                5.669e-10   5.669e-10
	K                 2.600e-05   2.600e-05
	Mg                1.230e-08   1.230e-08
	Mn                1.125e-07   1.125e-07
	N(5)              5.107e-05   5.107e-05
	Na                1.944e-02   1.944e-02
	Si                3.547e-06   3.547e-06
	Zn                1.154e-06   1.154e-06

----------------------------Description of solution----------------------------

                                       pH  =  11.980    
                                       pe  =   4.000    
      Specific Conductance (µS/cm,  26°C)  = 3315
                          Density (g/cm³)  =   0.99819
                               Volume (L)  =   1.00303
                        Activity of water  =   0.999
                 Ionic strength (mol/kgw)  =   2.156e-02
                       Mass of water (kg)  =   1.000e+00
                 Total alkalinity (eq/kg)  =   3.186e-02
                    Total carbon (mol/kg)  =   0.000e+00
                       Total CO2 (mol/kg)  =   0.000e+00
                         Temperature (°C)  =  25.60
                  Electrical balance (eq)  =   6.000e-03
 Percent error, 100*(Cat-|An|)/(Cat+|An|)  =  15.06
                               Iterations  =  10
                                  Total H  = 1.110443e+02
                                  Total O  = 5.553824e+01

----------------------------Distribution of species----------------------------

                                               Log       Log       Log    mole V
   Species          Molality    Activity  Molality  Activity     Gamma   cm³/mol

   OH-             1.172e-02   1.011e-02    -1.931    -1.995    -0.064     -3.95
   H+              1.181e-12   1.047e-12   -11.928   -11.980    -0.052      0.00
   H2O             5.551e+01   9.994e-01     1.744    -0.000     0.000     18.07
Al            4.988e-03
   Al(OH)4-        4.988e-03   4.329e-03    -2.302    -2.364    -0.062     (0)  
   Al(OH)3         2.375e-09   2.387e-09    -8.624    -8.622     0.002     (0)  
   Al(OH)2+        1.863e-14   1.624e-14   -13.730   -13.789    -0.059     (0)  
   AlOH+2          3.564e-21   2.061e-21   -20.448   -20.686    -0.238    -27.46
   AlF2+           3.398e-24   2.963e-24   -23.469   -23.528    -0.059     (0)  
   AlF3            1.968e-24   1.978e-24   -23.706   -23.704     0.002     (0)  
   AlF+2           1.923e-25   1.112e-25   -24.716   -24.954    -0.238     (0)  
   AlF4-           4.810e-26   4.174e-26   -25.318   -25.379    -0.062     (0)  
   Al+3            6.177e-28   2.091e-28   -27.209   -27.680    -0.470    -41.69
Ca            1.813e-03
   Ca+2            1.640e-03   9.481e-04    -2.785    -3.023    -0.238    -17.79
   CaOH+           1.732e-04   1.502e-04    -3.761    -3.823    -0.062     (0)  
Cl            9.213e-05
   Cl-             9.213e-05   7.961e-05    -4.036    -4.099    -0.063     18.20
   MnCl+           8.898e-13   7.742e-13   -12.051   -12.111    -0.060     -2.86
   ZnOHCl          4.766e-14   4.790e-14   -13.322   -13.320     0.002     (0)  
   MnCl2           2.677e-17   2.691e-17   -16.572   -16.570     0.002     85.16
   ZnCl+           4.841e-18   4.189e-18   -17.315   -17.378    -0.063    -13.31
   CuCl+           2.466e-20   2.134e-20   -19.608   -19.671    -0.063      0.59
   CuCl2-          1.180e-20   1.021e-20   -19.928   -19.991    -0.063     (0)  
   MnCl3-          6.779e-22   5.899e-22   -21.169   -21.229    -0.060     43.49
   ZnCl2           3.483e-22   3.500e-22   -21.458   -21.456     0.002    100.86
   CuCl3-2         2.253e-24   1.292e-24   -23.647   -23.889    -0.242     (0)  
   CuCl2           9.136e-25   9.181e-25   -24.039   -24.037     0.002     31.70
   ZnCl3-          3.626e-26   3.138e-26   -25.441   -25.503    -0.063     16.99
   ZnCl4-2         2.194e-30   1.258e-30   -29.659   -29.900    -0.242    145.75
   CuCl3-          3.029e-31   2.621e-31   -30.519   -30.582    -0.063     (0)  
   FeCl+           2.733e-31   2.369e-31   -30.563   -30.625    -0.062     (0)  
   CuCl4-2         1.849e-37   1.060e-37   -36.733   -36.975    -0.242     (0)  
   FeCl+2          9.090e-39   5.212e-39   -38.041   -38.283    -0.242     (0)  
   FeCl2+          0.000e+00   0.000e+00   -41.680   -41.740    -0.060     (0)  
   FeCl3           0.000e+00   0.000e+00   -46.841   -46.839     0.002     (0)  
Cu(1)         5.965e-18
   Cu+             5.953e-18   5.103e-18   -17.225   -17.292    -0.067     (0)  
   CuCl2-          1.180e-20   1.021e-20   -19.928   -19.991    -0.063     (0)  
   CuCl3-2         2.253e-24   1.292e-24   -23.647   -23.889    -0.242     (0)  
Cu(2)         1.989e-06
   Cu(OH)2         1.831e-06   1.840e-06    -5.737    -5.735     0.002     (0)  
   Cu(OH)3-        1.221e-07   1.058e-07    -6.913    -6.975    -0.062     (0)  
   Cu(OH)4-2       3.569e-08   2.015e-08    -7.447    -7.696    -0.248     (0)  
   CuOH+           1.067e-12   9.229e-13   -11.972   -12.035    -0.063     (0)  
   Cu+2            1.652e-16   9.670e-17   -15.782   -16.015    -0.233    -26.29
   Cu2(OH)2+2      7.005e-19   3.955e-19   -18.155   -18.403    -0.248     (0)  
   CuF+            1.082e-19   9.377e-20   -18.966   -19.028    -0.062     (0)  
   CuCl+           2.466e-20   2.134e-20   -19.608   -19.671    -0.063      0.59
   CuCl2           9.136e-25   9.181e-25   -24.039   -24.037     0.002     31.70
   CuCl3-          3.029e-31   2.621e-31   -30.519   -30.582    -0.063     (0)  
   CuCl4-2         1.849e-37   1.060e-37   -36.733   -36.975    -0.242     (0)  
F             6.194e-05
   F-              6.143e-05   5.299e-05    -4.212    -4.276    -0.064     -1.20
   NaF             5.127e-07   5.153e-07    -6.290    -6.288     0.002      7.28
   MgF+            8.528e-12   7.401e-12   -11.069   -11.131    -0.062    -10.49
   MnF+            1.006e-12   8.753e-13   -11.997   -12.058    -0.060     (0)  
   HF              8.371e-14   8.413e-14   -13.077   -13.075     0.002     12.53
   HF2-            1.983e-17   1.719e-17   -16.703   -16.765    -0.062     22.20
   ZnF+            1.657e-17   1.436e-17   -16.781   -16.843    -0.062     (0)  
   CuF+            1.082e-19   9.377e-20   -18.966   -19.028    -0.062     (0)  
   AlF2+           3.398e-24   2.963e-24   -23.469   -23.528    -0.059     (0)  
   AlF3            1.968e-24   1.978e-24   -23.706   -23.704     0.002     (0)  
   AlF+2           1.923e-25   1.112e-25   -24.716   -24.954    -0.238     (0)  
   AlF4-           4.810e-26   4.174e-26   -25.318   -25.379    -0.062     (0)  
   FeF+            1.318e-30   1.142e-30   -29.880   -29.942    -0.062     (0)  
   FeF2+           4.403e-34   3.831e-34   -33.356   -33.417    -0.060     (0)  
   FeF+2           3.145e-34   1.803e-34   -33.502   -33.744    -0.242     (0)  
   FeF3            3.208e-35   3.224e-35   -34.494   -34.492     0.002     (0)  
   SiF6-2          0.000e+00   0.000e+00   -50.891   -51.132    -0.242     43.04
Fe(2)         2.452e-22
   Fe(OH)3-        2.386e-22   2.076e-22   -21.622   -21.683    -0.060     (0)  
   Fe(OH)2         5.793e-24   5.822e-24   -23.237   -23.235     0.002     (0)  
   FeOH+           7.818e-25   6.803e-25   -24.107   -24.167    -0.060     (0)  
   Fe+2            3.682e-27   2.156e-27   -26.434   -26.666    -0.233    -21.77
   FeF+            1.318e-30   1.142e-30   -29.880   -29.942    -0.062     (0)  
   FeCl+           2.733e-31   2.369e-31   -30.563   -30.625    -0.062     (0)  
Fe(3)         5.669e-10
   Fe(OH)4-        5.664e-10   4.939e-10    -9.247    -9.306    -0.059     (0)  
   Fe(OH)3         5.512e-13   5.539e-13   -12.259   -12.257     0.002     (0)  
   Fe(OH)2+        5.034e-18   4.389e-18   -17.298   -17.358    -0.059     (0)  
   FeOH+2          2.368e-26   1.358e-26   -25.626   -25.867    -0.242     (0)  
   FeF2+           4.403e-34   3.831e-34   -33.356   -33.417    -0.060     (0)  
   FeF+2           3.145e-34   1.803e-34   -33.502   -33.744    -0.242     (0)  
   FeF3            3.208e-35   3.224e-35   -34.494   -34.492     0.002     (0)  
   Fe+3            6.284e-36   2.127e-36   -35.202   -35.672    -0.470     (0)  
   FeCl+2          9.090e-39   5.212e-39   -38.041   -38.283    -0.242     (0)  
   FeCl2+          0.000e+00   0.000e+00   -41.680   -41.740    -0.060     (0)  
   FeCl3           0.000e+00   0.000e+00   -46.841   -46.839     0.002     (0)  
   Fe2(OH)2+4      0.000e+00   0.000e+00   -49.322   -50.315    -0.993     (0)  
   Fe3(OH)4+5      0.000e+00   0.000e+00   -63.825   -65.377    -1.552     (0)  
H(0)          1.536e-35
   H2              7.678e-36   7.716e-36   -35.115   -35.113     0.002     28.61
K             2.600e-05
   K+              2.600e-05   2.245e-05    -4.585    -4.649    -0.064      9.13
Mg            1.230e-08
   MgOH+           8.721e-09   7.647e-09    -8.059    -8.116    -0.057     (0)  
   Mg+2            3.573e-09   2.091e-09    -8.447    -8.680    -0.233    -21.51
   MgF+            8.528e-12   7.401e-12   -11.069   -11.131    -0.062    -10.49
Mn(2)         1.125e-07
   MnOH+           7.067e-08   6.149e-08    -7.151    -7.211    -0.060     (0)  
   Mn(OH)3-        3.780e-08   3.289e-08    -7.423    -7.483    -0.060     (0)  
   Mn+2            4.078e-09   2.387e-09    -8.390    -8.622    -0.233    -19.34
   MnF+            1.006e-12   8.753e-13   -11.997   -12.058    -0.060     (0)  
   MnCl+           8.898e-13   7.742e-13   -12.051   -12.111    -0.060     -2.86
   MnCl2           2.677e-17   2.691e-17   -16.572   -16.570     0.002     85.16
   Mn(NO3)2        1.822e-17   1.831e-17   -16.739   -16.737     0.002     40.88
   MnCl3-          6.779e-22   5.899e-22   -21.169   -21.229    -0.060     43.49
Mn(3)         2.379e-30
   Mn+3            2.379e-30   8.052e-31   -29.624   -30.094    -0.470     (0)  
N(5)          5.107e-05
   NO3-            5.107e-05   4.392e-05    -4.292    -4.357    -0.065     29.66
   Mn(NO3)2        1.822e-17   1.831e-17   -16.739   -16.737     0.002     40.88
Na            1.944e-02
   Na+             1.944e-02   1.690e-02    -1.711    -1.772    -0.061     -1.28
   NaF             5.127e-07   5.153e-07    -6.290    -6.288     0.002      7.28
   NaOH            1.700e-14   1.708e-14   -13.770   -13.767     0.002     (0)  
O(0)          2.171e-22
   O2              1.086e-22   1.091e-22   -21.964   -21.962     0.002     30.45
Si            3.547e-06
   H3SiO4-         3.204e-06   2.773e-06    -5.494    -5.557    -0.063     28.10
   H2SiO4-2        3.238e-07   1.873e-07    -6.490    -6.728    -0.238     (0)  
   H4SiO4          1.919e-08   1.929e-08    -7.717    -7.715     0.002     52.03
   SiF6-2          0.000e+00   0.000e+00   -50.891   -51.132    -0.242     43.04
Zn            1.154e-06
   Zn(OH)3-        7.601e-07   6.589e-07    -6.119    -6.181    -0.062     (0)  
   Zn(OH)2         2.172e-07   2.183e-07    -6.663    -6.661     0.002     (0)  
   Zn(OH)4-2       1.765e-07   9.966e-08    -6.753    -7.001    -0.248     (0)  
   ZnOH+           2.405e-11   2.085e-11   -10.619   -10.681    -0.062     (0)  
   ZnOHCl          4.766e-14   4.790e-14   -13.322   -13.320     0.002     (0)  
   Zn+2            3.321e-14   1.904e-14   -13.479   -13.720    -0.242    -25.06
   ZnF+            1.657e-17   1.436e-17   -16.781   -16.843    -0.062     (0)  
   ZnCl+           4.841e-18   4.189e-18   -17.315   -17.378    -0.063    -13.31
   ZnCl2           3.483e-22   3.500e-22   -21.458   -21.456     0.002    100.86
   ZnCl3-          3.626e-26   3.138e-26   -25.441   -25.503    -0.063     16.99
   ZnCl4-2         2.194e-30   1.258e-30   -29.659   -29.900    -0.242    145.75

------------------------------Saturation indices-------------------------------

  Phase               SI** log IAP   log K(298 K,   1 atm)

  Al(OH)3(a)       -2.50      8.26   10.76  Al(OH)3
  Albite           -9.31    -27.28  -17.96  NaAlSi3O8
  Anorthite        -3.48    -23.18  -19.70  CaAl2Si2O8
  Ca-Montmorillonite -13.33    -58.28  -44.94  Ca0.165Al2.33Si3.67O10(OH)2
  Chalcedony       -4.17     -7.71   -3.54  SiO2
  Chlorite(14A)     1.62     69.78   68.16  Mg5Al2Si3O10(OH)8
  Chrysotile       -1.72     30.41   32.13  Mg3Si2O5(OH)4
  Fe(OH)3(a)       -4.62      0.27    4.89  Fe(OH)3
  Fluorite         -0.98    -11.57  -10.59  CaF2
  Gibbsite          0.18      8.26    8.08  Al(OH)3
  Goethite          1.29      0.27   -1.02  FeOOH
  H2(g)           -32.01    -35.11   -3.10  H2
  H2O(g)           -1.49     -0.00    1.49  H2O
  Halite           -7.44     -5.87    1.57  NaCl
  Hausmannite      17.09     77.97   60.88  Mn3O4
  Hematite          4.59      0.53   -4.05  Fe2O3
  Illite          -11.58    -51.77  -40.19  K0.6Mg0.25Al2.3Si3.5O10(OH)2
  K-feldspar       -9.63    -30.15  -20.53  KAlSi3O8
  K-mica           -3.65      8.97   12.62  KAl3Si3O10(OH)2
  Kaolinite        -6.29      1.09    7.38  Al2Si2O5(OH)4
  Manganite         5.98     31.32   25.34  MnOOH
  O2(g)           -19.07    -21.96   -2.90  O2
  Pyrochroite       0.14     15.34   15.20  Mn(OH)2
  Pyrolusite        6.01     47.30   41.28  MnO2:H2O
  Quartz           -3.74     -7.71   -3.97  SiO2
  Sepiolite        -8.33      7.42   15.74  Mg2Si3O7.5OH:3H2O
  Sepiolite(d)    -11.24      7.42   18.66  Mg2Si3O7.5OH:3H2O
  SiO2(a)          -5.01     -7.71   -2.71  SiO2
  Sylvite          -9.65     -8.75    0.90  KCl
  Talc             -6.35     14.98   21.33  Mg3Si4O10(OH)2
  Willemite        -2.52     12.76   15.28  Zn2SiO4
  Zn(OH)2(e)       -1.26     10.24   11.50  Zn(OH)2

**For a gas, SI = log10(fugacity). Fugacity = pressure * phi / 1 atm.
  For ideal gases, phi = 1.

Initial solution 2.	 1WBRA2 

-----------------------------Solution composition------------------------------

	Elements           Molality       Moles

	Al                3.738e-03   3.738e-03
	Ca                1.487e-03   1.487e-03
	Cl                2.782e-04   2.782e-04
	Cu                5.747e-07   5.747e-07
	F                 2.856e-05   2.856e-05
	Fe                1.381e-05   1.381e-05
	K                 1.001e-04   1.001e-04
	Mg                1.230e-08   1.230e-08
	Mn                8.375e-10   8.375e-10
	N(5)              5.298e-05   5.298e-05
	Na                1.874e-02   1.874e-02
	Si                2.098e-04   2.098e-04
	Zn                1.705e-07   1.705e-07

----------------------------Description of solution----------------------------

                                       pH  =  11.760    
                                       pe  =   4.000    
      Specific Conductance (µS/cm,  26°C)  = 2379
                          Density (g/cm³)  =   0.99795
                               Volume (L)  =   1.00306
                        Activity of water  =   0.999
                 Ionic strength (mol/kgw)  =   1.792e-02
                       Mass of water (kg)  =   1.000e+00
                 Total alkalinity (eq/kg)  =   2.228e-02
                    Total carbon (mol/kg)  =   0.000e+00
                       Total CO2 (mol/kg)  =   0.000e+00
                         Temperature (°C)  =  25.60
                  Electrical balance (eq)  =   1.041e-02
 Percent error, 100*(Cat-|An|)/(Cat+|An|)  =  31.50
                               Iterations  =   7
                                  Total H  = 1.110351e+02
                                  Total O  = 5.552930e+01

----------------------------Distribution of species----------------------------

                                               Log       Log       Log    mole V
   Species          Molality    Activity  Molality  Activity     Gamma   cm³/mol

   OH-             6.983e-03   6.093e-03    -2.156    -2.215    -0.059     -3.97
   H+              1.945e-12   1.738e-12   -11.711   -11.760    -0.049      0.00
   H2O             5.551e+01   9.995e-01     1.744    -0.000     0.000     18.07
Al            3.738e-03
   Al(OH)4-        3.738e-03   3.278e-03    -2.427    -2.484    -0.057     (0)  
   Al(OH)3         2.987e-09   2.999e-09    -8.525    -8.523     0.002     (0)  
   Al(OH)2+        3.846e-14   3.387e-14   -13.415   -13.470    -0.055     (0)  
   AlOH+2          1.186e-20   7.132e-21   -19.926   -20.147    -0.221    -27.49
   AlF2+           4.203e-24   3.701e-24   -23.376   -23.432    -0.055     (0)  
   AlF3            1.148e-24   1.152e-24   -23.940   -23.938     0.002     (0)  
   AlF+2           4.954e-25   2.978e-25   -24.305   -24.526    -0.221     (0)  
   AlF4-           1.293e-26   1.134e-26   -25.888   -25.945    -0.057     (0)  
   Al+3            3.312e-27   1.201e-27   -26.480   -26.921    -0.441    -41.75
Ca            1.487e-03
   Ca+2            1.396e-03   8.387e-04    -2.855    -3.076    -0.221    -17.83
   CaOH+           9.139e-05   8.005e-05    -4.039    -4.097    -0.058     (0)  
Cl            2.782e-04
   Cl-             2.782e-04   2.431e-04    -3.556    -3.614    -0.059     18.19
   ZnOHCl          5.628e-14   5.651e-14   -13.250   -13.248     0.002     (0)  
   MnCl+           4.149e-14   3.647e-14   -13.382   -13.438    -0.056     -2.87
   ZnCl+           9.375e-18   8.201e-18   -17.028   -17.086    -0.058    -13.30
   MnCl2           3.854e-18   3.870e-18   -17.414   -17.412     0.002     85.16
   CuCl2-          8.982e-20   7.857e-20   -19.047   -19.105    -0.058     (0)  
   CuCl+           6.146e-20   5.376e-20   -19.211   -19.270    -0.058      0.58
   ZnCl2           2.084e-21   2.092e-21   -20.681   -20.679     0.002    100.86
   MnCl3-          2.947e-22   2.591e-22   -21.531   -21.587    -0.056     43.46
   CuCl3-2         5.083e-23   3.034e-23   -22.294   -22.518    -0.224     (0)  
   CuCl2           7.034e-24   7.063e-24   -23.153   -23.151     0.002     31.70
   ZnCl3-          6.547e-25   5.727e-25   -24.184   -24.242    -0.058     17.00
   FeCl+           1.539e-25   1.348e-25   -24.813   -24.870    -0.058     (0)  
   ZnCl4-2         1.174e-28   7.010e-29   -27.930   -28.154    -0.224    145.68
   CuCl3-          7.038e-30   6.156e-30   -29.153   -29.211    -0.058     (0)  
   FeCl+2          4.971e-33   2.967e-33   -32.304   -32.528    -0.224     (0)  
   CuCl4-2         1.274e-35   7.604e-36   -34.895   -35.119    -0.224     (0)  
   FeCl2+          3.596e-36   3.161e-36   -35.444   -35.500    -0.056     (0)  
   FeCl3           0.000e+00   0.000e+00   -40.116   -40.114     0.002     (0)  
Cu(1)         4.943e-18
   Cu+             4.853e-18   4.211e-18   -17.314   -17.376    -0.062     (0)  
   CuCl2-          8.982e-20   7.857e-20   -19.047   -19.105    -0.058     (0)  
   CuCl3-2         5.083e-23   3.034e-23   -22.294   -22.518    -0.224     (0)  
Cu(2)         5.747e-07
   Cu(OH)2         5.492e-07   5.515e-07    -6.260    -6.258     0.002     (0)  
   Cu(OH)3-        2.182e-08   1.911e-08    -7.661    -7.719    -0.058     (0)  
   Cu(OH)4-2       3.726e-09   2.193e-09    -8.429    -8.659    -0.230     (0)  
   CuOH+           5.247e-13   4.589e-13   -12.280   -12.338    -0.058     (0)  
   Cu+2            1.313e-16   7.980e-17   -15.882   -16.098    -0.216    -26.32
   Cu2(OH)2+2      1.662e-19   9.781e-20   -18.779   -19.010    -0.230     (0)  
   CuCl+           6.146e-20   5.376e-20   -19.211   -19.270    -0.058      0.58
   CuF+            4.120e-20   3.609e-20   -19.385   -19.443    -0.058     (0)  
   CuCl2           7.034e-24   7.063e-24   -23.153   -23.151     0.002     31.70
   CuCl3-          7.038e-30   6.156e-30   -29.153   -29.211    -0.058     (0)  
   CuCl4-2         1.274e-35   7.604e-36   -34.895   -35.119    -0.224     (0)  
F             2.856e-05
   F-              2.833e-05   2.472e-05    -4.548    -4.607    -0.059     -1.21
   NaF             2.330e-07   2.340e-07    -6.633    -6.631     0.002      7.28
   MgF+            5.595e-12   4.906e-12   -11.252   -11.309    -0.057    -10.50
   HF              6.485e-14   6.512e-14   -13.188   -13.186     0.002     12.53
   MnF+            7.166e-15   6.298e-15   -14.145   -14.201    -0.056     (0)  
   HF2-            7.083e-18   6.204e-18   -17.150   -17.207    -0.058     22.18
   ZnF+            4.903e-18   4.295e-18   -17.310   -17.367    -0.058     (0)  
   CuF+            4.120e-20   3.609e-20   -19.385   -19.443    -0.058     (0)  
   AlF2+           4.203e-24   3.701e-24   -23.376   -23.432    -0.055     (0)  
   AlF3            1.148e-24   1.152e-24   -23.940   -23.938     0.002     (0)  
   AlF+2           4.954e-25   2.978e-25   -24.305   -24.526    -0.221     (0)  
   FeF+            1.134e-25   9.934e-26   -24.945   -25.003    -0.058     (0)  
   AlF4-           1.293e-26   1.134e-26   -25.888   -25.945    -0.057     (0)  
   FeF+2           2.627e-29   1.568e-29   -28.581   -28.805    -0.224     (0)  
   FeF2+           1.768e-29   1.554e-29   -28.753   -28.809    -0.056     (0)  
   FeF3            6.075e-31   6.100e-31   -30.216   -30.215     0.002     (0)  
   SiF6-2          0.000e+00   0.000e+00   -50.004   -50.228    -0.224     42.99
Fe(2)         1.012e-17
   Fe(OH)3-        9.639e-18   8.472e-18   -17.016   -17.072    -0.056     (0)  
   Fe(OH)2         3.926e-19   3.942e-19   -18.406   -18.404     0.002     (0)  
   FeOH+           8.696e-20   7.644e-20   -19.061   -19.117    -0.056     (0)  
   Fe+2            6.613e-22   4.019e-22   -21.180   -21.396    -0.216    -21.80
   FeCl+           1.539e-25   1.348e-25   -24.813   -24.870    -0.058     (0)  
   FeF+            1.134e-25   9.934e-26   -24.945   -25.003    -0.058     (0)  
Fe(3)         1.381e-05
   Fe(OH)4-        1.379e-05   1.214e-05    -4.860    -4.916    -0.055     (0)  
   Fe(OH)3         2.251e-08   2.260e-08    -7.648    -7.646     0.002     (0)  
   Fe(OH)2+        3.375e-13   2.972e-13   -12.472   -12.527    -0.055     (0)  
   FeOH+2          2.556e-21   1.526e-21   -20.592   -20.817    -0.224     (0)  
   FeF+2           2.627e-29   1.568e-29   -28.581   -28.805    -0.224     (0)  
   FeF2+           1.768e-29   1.554e-29   -28.753   -28.809    -0.056     (0)  
   Fe+3            1.094e-30   3.966e-31   -29.961   -30.402    -0.441     (0)  
   FeF3            6.075e-31   6.100e-31   -30.216   -30.215     0.002     (0)  
   FeCl+2          4.971e-33   2.967e-33   -32.304   -32.528    -0.224     (0)  
   FeCl2+          3.596e-36   3.161e-36   -35.444   -35.500    -0.056     (0)  
   Fe2(OH)2+4      5.090e-40   0.000e+00   -39.293   -40.214    -0.921     (0)  
   FeCl3           0.000e+00   0.000e+00   -40.116   -40.114     0.002     (0)  
   Fe3(OH)4+5      0.000e+00   0.000e+00   -49.006   -50.445    -1.438     (0)  
H(0)          4.233e-35
   H2              2.116e-35   2.125e-35   -34.674   -34.673     0.002     28.61
K             1.001e-04
   K+              1.001e-04   8.735e-05    -4.000    -4.059    -0.059      9.12
Mg            1.230e-08
   MgOH+           7.403e-09   6.550e-09    -8.131    -8.184    -0.053     (0)  
   Mg+2            4.893e-09   2.972e-09    -8.310    -8.527    -0.217    -21.54
   MgF+            5.595e-12   4.906e-12   -11.252   -11.309    -0.057    -10.50
Mn(2)         8.375e-10
   MnOH+           6.505e-10   5.717e-10    -9.187    -9.243    -0.056     (0)  
   Mn(OH)3-        1.263e-10   1.111e-10    -9.898    -9.954    -0.056     (0)  
   Mn+2            6.061e-11   3.683e-11   -10.217   -10.434    -0.216    -19.47
   MnCl+           4.149e-14   3.647e-14   -13.382   -13.438    -0.056     -2.87
   MnF+            7.166e-15   6.298e-15   -14.145   -14.201    -0.056     (0)  
   MnCl2           3.854e-18   3.870e-18   -17.414   -17.412     0.002     85.16
   Mn(NO3)2        3.099e-19   3.112e-19   -18.509   -18.507     0.002     40.88
   MnCl3-          2.947e-22   2.591e-22   -21.531   -21.587    -0.056     43.46
Mn(3)         3.427e-32
   Mn+3            3.427e-32   1.242e-32   -31.465   -31.906    -0.441     (0)  
N(5)          5.298e-05
   NO3-            5.298e-05   4.610e-05    -4.276    -4.336    -0.060     29.64
   Mn(NO3)2        3.099e-19   3.112e-19   -18.509   -18.507     0.002     40.88
Na            1.874e-02
   Na+             1.874e-02   1.645e-02    -1.727    -1.784    -0.056     -1.30
   NaF             2.330e-07   2.340e-07    -6.633    -6.631     0.002      7.28
   NaOH            9.983e-15   1.002e-14   -14.001   -13.999     0.002     (0)  
O(0)          2.865e-23
   O2              1.433e-23   1.439e-23   -22.844   -22.842     0.002     30.45
Si            2.098e-04
   H3SiO4-         1.962e-04   1.717e-04    -3.707    -3.765    -0.058     28.08
   H2SiO4-2        1.162e-05   6.986e-06    -4.935    -5.156    -0.221     (0)  
   H4SiO4          1.973e-06   1.982e-06    -5.705    -5.703     0.002     52.03
   SiF6-2          0.000e+00   0.000e+00   -50.004   -50.228    -0.224     42.99
Zn            1.705e-07
   Zn(OH)3-        1.056e-07   9.246e-08    -6.976    -7.034    -0.058     (0)  
   Zn(OH)2         5.063e-08   5.084e-08    -7.296    -7.294     0.002     (0)  
   Zn(OH)4-2       1.432e-08   8.428e-09    -7.844    -8.074    -0.230     (0)  
   ZnOH+           9.198e-12   8.057e-12   -11.036   -11.094    -0.058     (0)  
   ZnOHCl          5.628e-14   5.651e-14   -13.250   -13.248     0.002     (0)  
   Zn+2            2.045e-14   1.221e-14   -13.689   -13.913    -0.224    -25.10
   ZnCl+           9.375e-18   8.201e-18   -17.028   -17.086    -0.058    -13.30
   ZnF+            4.903e-18   4.295e-18   -17.310   -17.367    -0.058     (0)  
   ZnCl2           2.084e-21   2.092e-21   -20.681   -20.679     0.002    100.86
   ZnCl3-          6.547e-25   5.727e-25   -24.184   -24.242    -0.058     17.00
   ZnCl4-2         1.174e-28   7.010e-29   -27.930   -28.154    -0.224    145.68

------------------------------Saturation indices-------------------------------

  Phase               SI** log IAP   log K(298 K,   1 atm)

  Al(OH)3(a)       -2.40      8.36   10.76  Al(OH)3
  Albite           -3.41    -21.38  -17.96  NaAlSi3O8
  Anorthite         0.25    -19.45  -19.70  CaAl2Si2O8
  Ca-Montmorillonite  -5.80    -50.74  -44.94  Ca0.165Al2.33Si3.67O10(OH)2
  Chalcedony       -2.16     -5.70   -3.54  SiO2
  Chlorite(14A)     6.42     74.57   68.16  Mg5Al2Si3O10(OH)8
  Chrysotile        1.45     33.57   32.13  Mg3Si2O5(OH)4
  Fe(OH)3(a)       -0.01      4.88    4.89  Fe(OH)3
  Fluorite         -1.70    -12.29  -10.59  CaF2
  Gibbsite          0.28      8.36    8.08  Al(OH)3
  Goethite          5.90      4.88   -1.02  FeOOH
  H2(g)           -31.57    -34.67   -3.10  H2
  H2O(g)           -1.49     -0.00    1.49  H2O
  Halite           -6.97     -5.40    1.57  NaCl
  Hausmannite       9.90     70.78   60.88  Mn3O4
  Hematite         13.81      9.76   -4.05  Fe2O3
  Illite           -4.16    -44.35  -40.19  K0.6Mg0.25Al2.3Si3.5O10(OH)2
  K-feldspar       -3.12    -23.65  -20.53  KAlSi3O8
  K-mica            3.05     15.67   12.62  KAl3Si3O10(OH)2
  Kaolinite        -2.07      5.31    7.38  Al2Si2O5(OH)4
  Manganite         3.51     28.85   25.34  MnOOH
  O2(g)           -19.95    -22.84   -2.90  O2
  Pyrochroite      -2.11     13.09   15.20  Mn(OH)2
  Pyrolusite        3.32     44.61   41.28  MnO2:H2O
  Quartz           -1.73     -5.70   -3.97  SiO2
  Sepiolite        -2.87     12.88   15.74  Mg2Si3O7.5OH:3H2O
  Sepiolite(d)     -5.78     12.88   18.66  Mg2Si3O7.5OH:3H2O
  SiO2(a)          -3.00     -5.70   -2.71  SiO2
  Sylvite          -8.58     -7.67    0.90  KCl
  Talc              0.84     22.17   21.33  Mg3Si4O10(OH)2
  Willemite        -1.77     13.51   15.28  Zn2SiO4
  Zn(OH)2(e)       -1.89      9.61   11.50  Zn(OH)2

**For a gas, SI = log10(fugacity). Fugacity = pressure * phi / 1 atm.
  For ideal gases, phi = 1.

Initial solution 3.	 1WBRS1 

-----------------------------Solution composition------------------------------

	Elements           Molality       Moles

	Al                4.832e-03   4.832e-03
	Ca                1.418e-03   1.418e-03
	Cl                8.778e-05   8.778e-05
	Cu                9.968e-08   9.968e-08
	F                 7.843e-05   7.843e-05
	Fe                4.662e-07   4.662e-07
	K                 2.497e-05   2.497e-05
	Mg                1.230e-08   1.230e-08
	Mn                8.375e-10   8.375e-10
	N(5)              2.286e-04   2.286e-04
	Na                1.950e-02   1.950e-02
	Si                2.815e-04   2.815e-04
	Zn                1.389e-07   1.389e-07

----------------------------Description of solution----------------------------

                                       pH  =  11.930    
                                       pe  =   4.000    
      Specific Conductance (µS/cm,  29°C)  = 3935
                          Density (g/cm³)  =   0.99718
                               Volume (L)  =   1.00408
                        Activity of water  =   0.999
                 Ionic strength (mol/kgw)  =   2.210e-02
                       Mass of water (kg)  =   1.000e+00
                 Total alkalinity (eq/kg)  =   3.355e-02
                    Total carbon (mol/kg)  =   0.000e+00
                       Total CO2 (mol/kg)  =   0.000e+00
                         Temperature (°C)  =  29.30
                  Electrical balance (eq)  =   2.908e-03
 Percent error, 100*(Cat-|An|)/(Cat+|An|)  =   7.00
                               Iterations  =  10
                                  Total H  = 1.110465e+02
                                  Total O  = 5.554127e+01

----------------------------Distribution of species----------------------------

                                               Log       Log       Log    mole V
   Species          Molality    Activity  Molality  Activity     Gamma   cm³/mol

   OH-             1.379e-02   1.187e-02    -1.860    -1.926    -0.065     -3.83
   H+              1.328e-12   1.175e-12   -11.877   -11.930    -0.053      0.00
   H2O             5.551e+01   9.993e-01     1.744    -0.000     0.000     18.09
Al            4.832e-03
   Al(OH)4-        4.832e-03   4.184e-03    -2.316    -2.378    -0.063     (0)  
   Al(OH)3         2.436e-09   2.449e-09    -8.613    -8.611     0.002     (0)  
   Al(OH)2+        1.652e-14   1.437e-14   -13.782   -13.842    -0.060     (0)  
   AlOH+2          2.610e-21   1.496e-21   -20.583   -20.825    -0.242    -27.58
   AlF2+           3.631e-24   3.160e-24   -23.440   -23.500    -0.060     (0)  
   AlF3            2.660e-24   2.674e-24   -23.575   -23.573     0.002     (0)  
   AlF+2           1.607e-25   9.214e-26   -24.794   -25.036    -0.242     (0)  
   AlF4-           8.238e-26   7.132e-26   -25.084   -25.147    -0.063     (0)  
   Al+3            4.028e-28   1.342e-28   -27.395   -27.872    -0.477    -41.92
Ca            1.418e-03
   Ca+2            1.296e-03   7.428e-04    -2.887    -3.129    -0.242    -17.75
   CaOH+           1.212e-04   1.048e-04    -3.916    -3.979    -0.063     (0)  
Cl            8.778e-05
   Cl-             8.778e-05   7.567e-05    -4.057    -4.121    -0.064     18.29
   ZnOHCl          6.804e-15   6.839e-15   -14.167   -14.165     0.002     (0)  
   MnCl+           6.127e-15   5.319e-15   -14.213   -14.274    -0.061     -2.04
   ZnCl+           9.128e-19   7.879e-19   -18.040   -18.104    -0.064     -9.92
   MnCl2           1.748e-19   1.757e-19   -18.757   -18.755     0.002     80.93
   CuCl+           1.790e-21   1.545e-21   -20.747   -20.811    -0.064     -0.29
   CuCl2-          6.989e-22   6.033e-22   -21.156   -21.219    -0.064     (0)  
   ZnCl2           6.318e-23   6.350e-23   -22.199   -22.197     0.002     94.12
   MnCl3-          4.217e-24   3.661e-24   -23.375   -23.436    -0.061     43.34
   CuCl3-2         1.294e-25   7.354e-26   -24.888   -25.133    -0.246     (0)  
   CuCl2           6.539e-26   6.573e-26   -25.184   -25.182     0.002     35.70
   ZnCl3-          6.406e-27   5.530e-27   -26.193   -26.257    -0.064     17.31
   FeCl+           1.438e-28   1.243e-28   -27.842   -27.905    -0.063     (0)  
   ZnCl4-2         3.817e-31   2.169e-31   -30.418   -30.664    -0.246    146.21
   CuCl3-          2.204e-32   1.902e-32   -31.657   -31.721    -0.064     (0)  
   FeCl+2          6.596e-36   3.748e-36   -35.181   -35.426    -0.246     (0)  
   CuCl4-2         1.401e-38   7.958e-39   -37.854   -38.099    -0.246     (0)  
   FeCl2+          1.276e-39   1.107e-39   -38.894   -38.956    -0.061     (0)  
   FeCl3           0.000e+00   0.000e+00   -44.079   -44.077     0.002     (0)  
Cu(1)         3.944e-19
   Cu+             3.937e-19   3.366e-19   -18.405   -18.473    -0.068     (0)  
   CuCl2-          6.989e-22   6.033e-22   -21.156   -21.219    -0.064     (0)  
   CuCl3-2         1.294e-25   7.354e-26   -24.888   -25.133    -0.246     (0)  
Cu(2)         9.968e-08
   Cu(OH)2         9.271e-08   9.318e-08    -7.033    -7.031     0.002     (0)  
   Cu(OH)3-        5.522e-09   4.776e-09    -8.258    -8.321    -0.063     (0)  
   Cu(OH)4-2       1.449e-09   8.105e-10    -8.839    -9.091    -0.252     (0)  
   CuOH+           6.075e-14   5.243e-14   -13.216   -13.280    -0.064     (0)  
   Cu+2            1.062e-17   6.165e-18   -16.974   -17.210    -0.236    -26.32
   CuF+            9.027e-21   7.806e-21   -20.044   -20.108    -0.063     (0)  
   Cu2(OH)2+2      3.277e-21   1.833e-21   -20.485   -20.737    -0.252     (0)  
   CuCl+           1.790e-21   1.545e-21   -20.747   -20.811    -0.064     -0.29
   CuCl2           6.539e-26   6.573e-26   -25.184   -25.182     0.002     35.70
   CuCl3-          2.204e-32   1.902e-32   -31.657   -31.721    -0.064     (0)  
   CuCl4-2         1.401e-38   7.958e-39   -37.854   -38.099    -0.246     (0)  
F             7.843e-05
   F-              7.778e-05   6.693e-05    -4.109    -4.174    -0.065     -1.17
   NaF             6.478e-07   6.512e-07    -6.189    -6.186     0.002      7.41
   MgF+            9.829e-12   8.509e-12   -11.007   -11.070    -0.063    -10.50
   HF              1.269e-13   1.275e-13   -12.897   -12.894     0.002     12.68
   MnF+            9.204e-15   7.991e-15   -14.036   -14.097    -0.061     (0)  
   HF2-            3.907e-17   3.378e-17   -16.408   -16.471    -0.063     22.35
   ZnF+            3.701e-18   3.200e-18   -17.432   -17.495    -0.063     (0)  
   CuF+            9.027e-21   7.806e-21   -20.044   -20.108    -0.063     (0)  
   AlF2+           3.631e-24   3.160e-24   -23.440   -23.500    -0.060     (0)  
   AlF3            2.660e-24   2.674e-24   -23.575   -23.573     0.002     (0)  
   AlF+2           1.607e-25   9.214e-26   -24.794   -25.036    -0.242     (0)  
   AlF4-           8.238e-26   7.132e-26   -25.084   -25.147    -0.063     (0)  
   FeF+            9.213e-28   7.967e-28   -27.036   -27.099    -0.063     (0)  
   FeF2+           5.238e-31   4.548e-31   -30.281   -30.342    -0.061     (0)  
   FeF+2           2.856e-31   1.623e-31   -30.544   -30.790    -0.246     (0)  
   FeF3            4.869e-32   4.894e-32   -31.313   -31.310     0.002     (0)  
   SiF6-2          0.000e+00   0.000e+00   -48.335   -48.580    -0.246     43.25
Fe(2)         1.796e-19
   Fe(OH)3-        1.745e-19   1.515e-19   -18.758   -18.819    -0.061     (0)  
   Fe(OH)2         4.576e-21   4.600e-21   -20.339   -20.337     0.002     (0)  
   FeOH+           5.062e-22   4.394e-22   -21.296   -21.357    -0.061     (0)  
   Fe+2            2.051e-24   1.190e-24   -23.688   -23.924    -0.236    -21.55
   FeF+            9.213e-28   7.967e-28   -27.036   -27.099    -0.063     (0)  
   FeCl+           1.438e-28   1.243e-28   -27.842   -27.905    -0.063     (0)  
Fe(3)         4.662e-07
   Fe(OH)4-        4.658e-07   4.053e-07    -6.332    -6.392    -0.060     (0)  
   Fe(OH)3         4.384e-10   4.406e-10    -9.358    -9.356     0.002     (0)  
   Fe(OH)2+        3.842e-15   3.343e-15   -14.415   -14.476    -0.060     (0)  
   FeOH+2          1.779e-23   1.011e-23   -22.750   -22.995    -0.246     (0)  
   FeF2+           5.238e-31   4.548e-31   -30.281   -30.342    -0.061     (0)  
   FeF+2           2.856e-31   1.623e-31   -30.544   -30.790    -0.246     (0)  
   FeF3            4.869e-32   4.894e-32   -31.313   -31.310     0.002     (0)  
   Fe+3            4.304e-33   1.434e-33   -32.366   -32.843    -0.477     (0)  
   FeCl+2          6.596e-36   3.748e-36   -35.181   -35.426    -0.246     (0)  
   FeCl2+          1.276e-39   1.107e-39   -38.894   -38.956    -0.061     (0)  
   Fe2(OH)2+4      0.000e+00   0.000e+00   -43.627   -44.637    -1.010     (0)  
   FeCl3           0.000e+00   0.000e+00   -44.079   -44.077     0.002     (0)  
   Fe3(OH)4+5      0.000e+00   0.000e+00   -55.385   -56.963    -1.578     (0)  
H(0)          1.864e-35
   H2              9.321e-36   9.368e-36   -35.031   -35.028     0.002     28.60
K             2.497e-05
   K+              2.497e-05   2.151e-05    -4.603    -4.667    -0.065      9.24
Mg            1.230e-08
   MgOH+           9.222e-09   8.070e-09    -8.035    -8.093    -0.058     (0)  
   Mg+2            3.071e-09   1.782e-09    -8.513    -8.749    -0.236    -21.63
   MgF+            9.829e-12   8.509e-12   -11.007   -11.070    -0.063    -10.50
Mn(2)         8.375e-10
   MnOH+           6.139e-10   5.330e-10    -9.212    -9.273    -0.061     (0)  
   Mn(OH)3-        1.938e-10   1.683e-10    -9.713    -9.774    -0.061     (0)  
   Mn+2            2.973e-11   1.726e-11   -10.527   -10.763    -0.236    -19.27
   MnF+            9.204e-15   7.991e-15   -14.036   -14.097    -0.061     (0)  
   MnCl+           6.127e-15   5.319e-15   -14.213   -14.274    -0.061     -2.04
   Mn(NO3)2        2.604e-18   2.617e-18   -17.584   -17.582     0.002     39.96
   MnCl2           1.748e-19   1.757e-19   -18.757   -18.755     0.002     80.93
   MnCl3-          4.217e-24   3.661e-24   -23.375   -23.436    -0.061     43.34
Mn(3)         2.973e-32
   Mn+3            2.973e-32   9.904e-33   -31.527   -32.004    -0.477     (0)  
N(5)          2.286e-04
   NO3-            2.286e-04   1.961e-04    -3.641    -3.708    -0.067     29.99
   Mn(NO3)2        2.604e-18   2.617e-18   -17.584   -17.582     0.002     39.96
Na            1.950e-02
   Na+             1.949e-02   1.691e-02    -1.710    -1.772    -0.062     -1.10
   NaF             6.478e-07   6.512e-07    -6.189    -6.186     0.002      7.41
   NaOH            1.996e-14   2.006e-14   -13.700   -13.698     0.002     (0)  
O(0)          2.202e-21
   O2              1.101e-21   1.107e-21   -20.958   -20.956     0.002     30.72
Si            2.815e-04
   H3SiO4-         2.512e-04   2.168e-04    -3.600    -3.664    -0.064     28.17
   H2SiO4-2        2.878e-05   1.649e-05    -4.541    -4.783    -0.242     (0)  
   H4SiO4          1.486e-06   1.494e-06    -5.828    -5.826     0.002     51.74
   SiF6-2          0.000e+00   0.000e+00   -48.335   -48.580    -0.246     43.25
Zn            1.389e-07
   Zn(OH)3-        9.091e-08   7.862e-08    -7.041    -7.104    -0.063     (0)  
   Zn(OH)2         2.908e-08   2.923e-08    -7.536    -7.534     0.002     (0)  
   Zn(OH)4-2       1.895e-08   1.060e-08    -7.722    -7.975    -0.252     (0)  
   ZnOH+           4.774e-12   4.128e-12   -11.321   -11.384    -0.063     (0)  
   ZnOHCl          6.804e-15   6.839e-15   -14.167   -14.165     0.002     (0)  
   Zn+2            5.648e-15   3.209e-15   -14.248   -14.494    -0.246    -25.29
   ZnF+            3.701e-18   3.200e-18   -17.432   -17.495    -0.063     (0)  
   ZnCl+           9.128e-19   7.879e-19   -18.040   -18.104    -0.064     -9.92
   ZnCl2           6.318e-23   6.350e-23   -22.199   -22.197     0.002     94.12
   ZnCl3-          6.406e-27   5.530e-27   -26.193   -26.257    -0.064     17.31
   ZnCl4-2         3.817e-31   2.169e-31   -30.418   -30.664    -0.246    146.21

------------------------------Saturation indices-------------------------------

  Phase               SI** log IAP   log K(302 K,   1 atm)

  Al(OH)3(a)       -2.61      7.92   10.52  Al(OH)3
  Albite           -3.89    -21.63  -17.73  NaAlSi3O8
  Anorthite         0.06    -19.54  -19.59  CaAl2Si2O8
  Ca-Montmorillonite  -6.88    -51.29  -44.42  Ca0.165Al2.33Si3.67O10(OH)2
  Chalcedony       -2.32     -5.83   -3.50  SiO2
  Chlorite(14A)     7.11     73.91   66.80  Mg5Al2Si3O10(OH)8
  Chrysotile        2.01     33.68   31.68  Mg3Si2O5(OH)4
  Fe(OH)3(a)       -1.95      2.95    4.89  Fe(OH)3
  Fluorite         -0.93    -11.48  -10.55  CaF2
  Gibbsite          0.04      7.92    7.87  Al(OH)3
  Goethite          4.10      2.95   -1.15  FeOOH
  H2(g)           -31.92    -35.03   -3.11  H2
  H2O(g)           -1.39     -0.00    1.39  H2O
  Halite           -7.47     -5.89    1.57  NaCl
  Hausmannite      11.17     71.15   59.98  Mn3O4
  Hematite         10.22      5.89   -4.33  Fe2O3
  Illite           -5.46    -45.16  -39.70  K0.6Mg0.25Al2.3Si3.5O10(OH)2
  K-feldspar       -4.27    -24.52  -20.25  KAlSi3O8
  K-mica            1.45     13.54   12.08  KAl3Si3O10(OH)2
  Kaolinite        -2.88      4.18    7.07  Al2Si2O5(OH)4
  Manganite         3.69     29.03   25.34  MnOOH
  O2(g)           -18.03    -20.96   -2.92  O2
  Pyrochroite      -2.10     13.10   15.20  Mn(OH)2
  Pyrolusite        4.25     44.96   40.70  MnO2:H2O
  Quartz           -1.91     -5.83   -3.92  SiO2
  Sepiolite        -2.90     12.74   15.65  Mg2Si3O7.5OH:3H2O
  Sepiolite(d)     -5.92     12.74   18.66  Mg2Si3O7.5OH:3H2O
  SiO2(a)          -3.15     -5.83   -2.68  SiO2
  Sylvite          -9.71     -8.79    0.92  KCl
  Talc              1.12     22.03   20.92  Mg3Si4O10(OH)2
  Willemite        -2.08     12.91   14.98  Zn2SiO4
  Zn(OH)2(e)       -2.13      9.37   11.50  Zn(OH)2

**For a gas, SI = log10(fugacity). Fugacity = pressure * phi / 1 atm.
  For ideal gases, phi = 1.

Initial solution 4.	 1WBRG2  

-----------------------------Solution composition------------------------------

	Elements           Molality       Moles

	Al                8.580e-06   8.580e-06
	Ca                1.272e-02   1.272e-02
	Cl                1.183e-04   1.183e-04
	Cu                3.544e-07   3.544e-07
	F                 2.459e-05   2.459e-05
	Fe                4.434e-06   4.434e-06
	K                 3.908e-05   3.908e-05
	Mg                1.556e-06   1.556e-06
	Mn                8.380e-10   8.380e-10
	N(5)              5.098e-05   5.098e-05
	Na                3.187e-02   3.187e-02
	S(6)              7.906e-05   7.906e-05
	Si                1.750e-05   1.750e-05
	Zn                2.743e-07   2.743e-07

----------------------------Description of solution----------------------------

                                       pH  =  10.920    
                                       pe  =   4.000    
      Specific Conductance (µS/cm,  30°C)  = 3143
                          Density (g/cm³)  =   0.99712
                               Volume (L)  =   1.00418
                        Activity of water  =   0.999
                 Ionic strength (mol/kgw)  =   4.215e-02
                       Mass of water (kg)  =   1.000e+00
                 Total alkalinity (eq/kg)  =   1.672e-03
                    Total carbon (mol/kg)  =   0.000e+00
                       Total CO2 (mol/kg)  =   0.000e+00
                         Temperature (°C)  =  30.20
                  Electrical balance (eq)  =   5.536e-02
 Percent error, 100*(Cat-|An|)/(Cat+|An|)  =  93.79
                               Iterations  =   7
                                  Total H  = 1.110142e+02
                                  Total O  = 5.550842e+01

----------------------------Distribution of species----------------------------

                                               Log       Log       Log    mole V
   Species          Molality    Activity  Molality  Activity     Gamma   cm³/mol

   OH-             1.507e-03   1.238e-03    -2.822    -2.907    -0.085     -3.73
   H+              1.399e-11   1.202e-11   -10.854   -10.920    -0.066      0.00
   H2O             5.551e+01   9.992e-01     1.744    -0.000     0.000     18.10
Al            8.580e-06
   Al(OH)4-        8.580e-06   7.119e-06    -5.067    -5.148    -0.081     (0)  
   Al(OH)3         4.162e-11   4.202e-11   -10.381   -10.376     0.004     (0)  
   Al(OH)2+        2.836e-15   2.373e-15   -14.547   -14.625    -0.077     (0)  
   AlOH+2          4.788e-21   2.347e-21   -20.320   -20.629    -0.310    -27.48
   AlF2+           5.136e-24   4.297e-24   -23.289   -23.367    -0.077     (0)  
   AlF3            1.074e-24   1.085e-24   -23.969   -23.965     0.004     (0)  
   AlF+2           8.538e-25   4.185e-25   -24.069   -24.378    -0.310     (0)  
   AlF4-           1.040e-26   8.627e-27   -25.983   -26.064    -0.081     (0)  
   Al+3            7.938e-27   2.034e-27   -26.100   -26.692    -0.591    -41.76
   AlSO4+          1.941e-28   1.611e-28   -27.712   -27.793    -0.081     (0)  
   Al(SO4)2-       1.473e-31   1.222e-31   -30.832   -30.913    -0.081     (0)  
   AlHSO4+2        3.811e-40   1.805e-40   -39.419   -39.744    -0.325     (0)  
Ca            1.272e-02
   Ca+2            1.259e-02   6.182e-03    -1.900    -2.209    -0.309    -17.60
   CaOH+           1.028e-04   8.527e-05    -3.988    -4.069    -0.081     (0)  
   CaSO4           2.651e-05   2.677e-05    -4.577    -4.572     0.004      7.68
   CaHSO4+         2.756e-15   2.286e-15   -14.560   -14.641    -0.081     (0)  
Cl            1.183e-04
   Cl-             1.183e-04   9.745e-05    -3.927    -4.011    -0.084     18.36
   ZnOHCl          6.365e-13   6.427e-13   -12.196   -12.192     0.004     (0)  
   MnCl+           6.762e-14   5.637e-14   -13.170   -13.249    -0.079     -1.83
   ZnCl+           9.537e-16   7.874e-16   -15.021   -15.104    -0.083     -9.18
   MnCl2           2.375e-18   2.398e-18   -17.624   -17.620     0.004     79.96
   CuCl+           1.005e-18   8.300e-19   -17.998   -18.081    -0.083     -0.43
   CuCl2-          4.873e-19   4.024e-19   -18.312   -18.395    -0.083     (0)  
   ZnCl2           8.123e-20   8.202e-20   -19.090   -19.086     0.004     92.58
   CuCl3-2         1.312e-22   6.338e-23   -21.882   -22.198    -0.316     (0)  
   MnCl3-          7.720e-23   6.436e-23   -22.112   -22.191    -0.079     43.42
   CuCl2           4.546e-23   4.590e-23   -22.342   -22.338     0.004     36.61
   FeCl+           1.564e-23   1.298e-23   -22.806   -22.887    -0.081     (0)  
   ZnCl3-          1.120e-23   9.247e-24   -22.951   -23.034    -0.083     17.28
   ZnCl4-2         9.733e-28   4.703e-28   -27.012   -27.328    -0.316    146.60
   CuCl3-          2.104e-29   1.738e-29   -28.677   -28.760    -0.083     (0)  
   FeCl+2          8.732e-31   4.219e-31   -30.059   -30.375    -0.316     (0)  
   FeCl2+          1.873e-34   1.562e-34   -33.727   -33.806    -0.079     (0)  
   CuCl4-2         1.977e-35   9.552e-36   -34.704   -35.020    -0.316     (0)  
   FeCl3           1.507e-39   1.522e-39   -38.822   -38.818     0.004     (0)  
Cu(1)         1.675e-16
   Cu+             1.670e-16   1.356e-16   -15.777   -15.868    -0.090     (0)  
   CuCl2-          4.873e-19   4.024e-19   -18.312   -18.395    -0.083     (0)  
   CuCl3-2         1.312e-22   6.338e-23   -21.882   -22.198    -0.316     (0)  
Cu(2)         3.544e-07
   Cu(OH)2         3.522e-07   3.556e-07    -6.453    -6.449     0.004     (0)  
   Cu(OH)3-        2.147e-09   1.781e-09    -8.668    -8.749    -0.081     (0)  
   Cu(OH)4-2       6.236e-11   2.953e-11   -10.205   -10.530    -0.325     (0)  
   CuOH+           2.480e-12   2.048e-12   -11.606   -11.689    -0.083     (0)  
   Cu+2            4.924e-15   2.464e-15   -14.308   -14.608    -0.301    -26.20
   CuSO4           1.209e-17   1.221e-17   -16.917   -16.913     0.004     13.69
   Cu2(OH)2+2      6.437e-18   3.048e-18   -17.191   -17.516    -0.325     (0)  
   CuF+            1.130e-18   9.374e-19   -17.947   -18.028    -0.081     (0)  
   CuCl+           1.005e-18   8.300e-19   -17.998   -18.081    -0.083     -0.43
   CuCl2           4.546e-23   4.590e-23   -22.342   -22.338     0.004     36.61
   CuCl3-          2.104e-29   1.738e-29   -28.677   -28.760    -0.083     (0)  
   CuCl4-2         1.977e-35   9.552e-36   -34.704   -35.020    -0.316     (0)  
F             2.459e-05
   F-              2.429e-05   1.995e-05    -4.615    -4.700    -0.085     -1.12
   NaF             3.018e-07   3.047e-07    -6.520    -6.516     0.004      7.44
   MgF+            1.056e-09   8.759e-10    -8.977    -9.058    -0.081    -10.47
   HF              3.916e-13   3.954e-13   -12.407   -12.403     0.004     12.72
   MnF+            2.351e-14   1.960e-14   -13.629   -13.708    -0.079     (0)  
   ZnF+            8.681e-16   7.201e-16   -15.061   -15.143    -0.081     (0)  
   HF2-            3.786e-17   3.141e-17   -16.422   -16.503    -0.081     22.44
   CuF+            1.130e-18   9.374e-19   -17.947   -18.028    -0.081     (0)  
   FeF+            2.320e-23   1.925e-23   -22.634   -22.716    -0.081     (0)  
   AlF2+           5.136e-24   4.297e-24   -23.289   -23.367    -0.077     (0)  
   AlF3            1.074e-24   1.085e-24   -23.969   -23.965     0.004     (0)  
   AlF+2           8.538e-25   4.185e-25   -24.069   -24.378    -0.310     (0)  
   AlF4-           1.040e-26   8.627e-27   -25.983   -26.064    -0.081     (0)  
   FeF+2           8.626e-27   4.168e-27   -26.064   -26.380    -0.316     (0)  
   FeF2+           4.219e-27   3.518e-27   -26.375   -26.454    -0.079     (0)  
   FeF3            1.121e-28   1.132e-28   -27.950   -27.946     0.004     (0)  
   SiF6-2          0.000e+00   0.000e+00   -47.621   -47.937    -0.316     43.52
Fe(2)         2.467e-17
   Fe(OH)3-        1.596e-17   1.331e-17   -16.797   -16.876    -0.079     (0)  
   FeOH+           4.456e-18   3.715e-18   -17.351   -17.430    -0.079     (0)  
   Fe(OH)2         4.059e-18   4.099e-18   -17.392   -17.387     0.004     (0)  
   Fe+2            1.928e-19   9.648e-20   -18.715   -19.016    -0.301    -21.36
   FeSO4           4.372e-22   4.414e-22   -21.359   -21.355     0.004     13.91
   FeF+            2.320e-23   1.925e-23   -22.634   -22.716    -0.081     (0)  
   FeCl+           1.564e-23   1.298e-23   -22.806   -22.887    -0.081     (0)  
   FeHSO4+         4.301e-32   3.567e-32   -31.366   -31.448    -0.081     (0)  
Fe(3)         4.434e-06
   Fe(OH)4-        4.395e-06   3.677e-06    -5.357    -5.434    -0.077     (0)  
   Fe(OH)3         3.912e-08   3.950e-08    -7.408    -7.403     0.004     (0)  
   Fe(OH)2+        3.529e-12   2.953e-12   -11.452   -11.530    -0.077     (0)  
   FeOH+2          1.829e-19   8.839e-20   -18.738   -19.054    -0.316     (0)  
   FeF+2           8.626e-27   4.168e-27   -26.064   -26.380    -0.316     (0)  
   FeF2+           4.219e-27   3.518e-27   -26.375   -26.454    -0.079     (0)  
   Fe+3            4.757e-28   1.219e-28   -27.323   -27.914    -0.591     (0)  
   FeF3            1.121e-28   1.132e-28   -27.950   -27.946     0.004     (0)  
   FeSO4+          4.207e-29   3.508e-29   -28.376   -28.455    -0.079     (0)  
   FeCl+2          8.732e-31   4.219e-31   -30.059   -30.375    -0.316     (0)  
   Fe(SO4)2-       2.212e-32   1.835e-32   -31.655   -31.736    -0.081     (0)  
   FeCl2+          1.873e-34   1.562e-34   -33.727   -33.806    -0.079     (0)  
   Fe2(OH)2+4      3.386e-36   1.702e-37   -35.470   -36.769    -1.299     (0)  
   FeHSO4+2        2.391e-39   1.132e-39   -38.621   -38.946    -0.325     (0)  
   FeCl3           1.507e-39   1.522e-39   -38.822   -38.818     0.004     (0)  
   Fe3(OH)4+5      0.000e+00   0.000e+00   -44.154   -46.183    -2.029     (0)  
H(0)          1.926e-33
   H2              9.631e-34   9.725e-34   -33.016   -33.012     0.004     28.60
K             3.908e-05
   K+              3.907e-05   3.214e-05    -4.408    -4.493    -0.085      9.31
   KSO4-           6.914e-09   5.785e-09    -8.160    -8.238    -0.077     34.38
Mg            1.556e-06
   Mg+2            1.208e-06   6.057e-07    -5.918    -6.218    -0.300    -21.53
   MgOH+           3.434e-07   2.900e-07    -6.464    -6.538    -0.073     (0)  
   MgSO4           3.759e-09   3.796e-09    -8.425    -8.421     0.004      6.02
   MgF+            1.056e-09   8.759e-10    -8.977    -9.058    -0.081    -10.47
Mn(2)         8.380e-10
   MnOH+           5.519e-10   4.601e-10    -9.258    -9.337    -0.079     (0)  
   Mn+2            2.838e-10   1.420e-10    -9.547    -9.848    -0.301    -18.79
   Mn(OH)3-        1.550e-12   1.292e-12   -11.810   -11.889    -0.079     (0)  
   MnSO4           6.461e-13   6.524e-13   -12.190   -12.186     0.004     20.40
   MnCl+           6.762e-14   5.637e-14   -13.170   -13.249    -0.079     -1.83
   MnF+            2.351e-14   1.960e-14   -13.629   -13.708    -0.079     (0)  
   MnCl2           2.375e-18   2.398e-18   -17.624   -17.620     0.004     79.96
   Mn(NO3)2        9.597e-19   9.691e-19   -18.018   -18.014     0.004     39.75
   MnCl3-          7.720e-23   6.436e-23   -22.112   -22.191    -0.079     43.42
Mn(3)         3.612e-31
   Mn+3            3.612e-31   9.257e-32   -30.442   -31.034    -0.591     (0)  
N(5)          5.098e-05
   NO3-            5.098e-05   4.164e-05    -4.293    -4.380    -0.088     30.12
   Mn(NO3)2        9.597e-19   9.691e-19   -18.018   -18.014     0.004     39.75
Na            3.187e-02
   Na+             3.186e-02   2.654e-02    -1.497    -1.576    -0.079     -0.99
   NaSO4-          3.848e-06   3.220e-06    -5.415    -5.492    -0.077     15.11
   NaF             3.018e-07   3.047e-07    -6.520    -6.516     0.004      7.44
   NaOH            3.254e-15   3.286e-15   -14.488   -14.483     0.004     (0)  
O(0)          3.888e-25
   O2              1.944e-25   1.963e-25   -24.711   -24.707     0.004     30.78
S(6)          7.906e-05
   SO4-2           4.869e-05   2.343e-05    -4.313    -4.630    -0.318     15.77
   CaSO4           2.651e-05   2.677e-05    -4.577    -4.572     0.004      7.68
   NaSO4-          3.848e-06   3.220e-06    -5.415    -5.492    -0.077     15.11
   KSO4-           6.914e-09   5.785e-09    -8.160    -8.238    -0.077     34.38
   MgSO4           3.759e-09   3.796e-09    -8.425    -8.421     0.004      6.02
   MnSO4           6.461e-13   6.524e-13   -12.190   -12.186     0.004     20.40
   HSO4-           3.707e-14   3.076e-14   -13.431   -13.512    -0.081     40.75
   ZnSO4           1.356e-14   1.369e-14   -13.868   -13.863     0.004     20.94
   CaHSO4+         2.756e-15   2.286e-15   -14.560   -14.641    -0.081     (0)  
   CuSO4           1.209e-17   1.221e-17   -16.917   -16.913     0.004     13.69
   Zn(SO4)2-2      5.296e-18   2.508e-18   -17.276   -17.601    -0.325     -8.12
   FeSO4           4.372e-22   4.414e-22   -21.359   -21.355     0.004     13.91
   AlSO4+          1.941e-28   1.611e-28   -27.712   -27.793    -0.081     (0)  
   FeSO4+          4.207e-29   3.508e-29   -28.376   -28.455    -0.079     (0)  
   Al(SO4)2-       1.473e-31   1.222e-31   -30.832   -30.913    -0.081     (0)  
   FeHSO4+         4.301e-32   3.567e-32   -31.366   -31.448    -0.081     (0)  
   Fe(SO4)2-       2.212e-32   1.835e-32   -31.655   -31.736    -0.081     (0)  
   FeHSO4+2        2.391e-39   1.132e-39   -38.621   -38.946    -0.325     (0)  
   AlHSO4+2        3.811e-40   1.805e-40   -39.419   -39.744    -0.325     (0)  
Si            1.750e-05
   H3SiO4-         1.636e-05   1.351e-05    -4.786    -4.869    -0.083     28.24
   H4SiO4          9.160e-07   9.250e-07    -6.038    -6.034     0.004     51.67
   H2SiO4-2        2.166e-07   1.062e-07    -6.664    -6.974    -0.310     (0)  
   SiF6-2          0.000e+00   0.000e+00   -47.621   -47.937    -0.316     43.52
Zn            2.743e-07
   Zn(OH)2         2.064e-07   2.084e-07    -6.685    -6.681     0.004     (0)  
   Zn(OH)3-        6.602e-08   5.477e-08    -7.180    -7.261    -0.081     (0)  
   Zn(OH)4-2       1.524e-09   7.214e-10    -8.817    -9.142    -0.325     (0)  
   ZnOH+           3.879e-10   3.218e-10    -9.411    -9.492    -0.081     (0)  
   Zn+2            4.960e-12   2.396e-12   -11.305   -11.620    -0.316    -25.21
   ZnOHCl          6.365e-13   6.427e-13   -12.196   -12.192     0.004     (0)  
   ZnSO4           1.356e-14   1.369e-14   -13.868   -13.863     0.004     20.94
   ZnCl+           9.537e-16   7.874e-16   -15.021   -15.104    -0.083     -9.18
   ZnF+            8.681e-16   7.201e-16   -15.061   -15.143    -0.081     (0)  
   Zn(SO4)2-2      5.296e-18   2.508e-18   -17.276   -17.601    -0.325     -8.12
   ZnCl2           8.123e-20   8.202e-20   -19.090   -19.086     0.004     92.58
   ZnCl3-          1.120e-23   9.247e-24   -22.951   -23.034    -0.083     17.28
   ZnCl4-2         9.733e-28   4.703e-28   -27.012   -27.328    -0.316    146.60

------------------------------Saturation indices-------------------------------

  Phase               SI** log IAP   log K(303 K,   1 atm)

  Al(OH)3(a)       -4.40      6.07   10.47  Al(OH)3
  Albite           -7.15    -24.82  -17.68  NaAlSi3O8
  Alunite         -26.28    -28.31   -2.03  KAl3(SO4)2(OH)6
  Anhydrite        -2.50     -6.84   -4.34  CaSO4
  Anorthite        -5.00    -24.57  -19.57  CaAl2Si2O8
  Ca-Montmorillonite -12.04    -56.34  -44.29  Ca0.165Al2.33Si3.67O10(OH)2
  Chalcedony       -2.54     -6.03   -3.49  SiO2
  Chlorite(14A)     5.67     72.14   66.48  Mg5Al2Si3O10(OH)8
  Chrysotile        3.23     34.80   31.57  Mg3Si2O5(OH)4
  Fe(OH)3(a)       -0.05      4.85    4.89  Fe(OH)3
  Fluorite         -1.07    -11.61  -10.54  CaF2
  Gibbsite         -1.76      6.07    7.82  Al(OH)3
  Goethite          6.03      4.85   -1.18  FeOOH
  Gypsum           -2.26     -6.84   -4.58  CaSO4:2H2O
  H2(g)           -29.90    -33.01   -3.11  H2
  H2O(g)           -1.37     -0.00    1.37  H2O
  Halite           -7.16     -5.59    1.57  NaCl
  Hausmannite       6.05     65.82   59.77  Mn3O4
  Hematite         14.09      9.69   -4.40  Fe2O3
  Illite          -10.73    -50.31  -39.58  K0.6Mg0.25Al2.3Si3.5O10(OH)2
  Jarosite-K      -22.37    -31.98   -9.60  KFe3(SO4)2(OH)6
  K-feldspar       -7.55    -27.74  -20.19  KAlSi3O8
  K-mica           -5.43      6.53   11.96  KAl3Si3O10(OH)2
  Kaolinite        -6.92      0.07    6.99  Al2Si2O5(OH)4
  Manganite         1.57     26.91   25.34  MnOOH
  Melanterite     -21.50    -23.65   -2.15  FeSO4:7H2O
  O2(g)           -21.78    -24.71   -2.93  O2
  Pyrochroite      -3.21     11.99   15.20  Mn(OH)2
  Pyrolusite        1.27     41.83   40.56  MnO2:H2O
  Quartz           -2.13     -6.03   -3.91  SiO2
  Sepiolite        -2.48     13.14   15.63  Mg2Si3O7.5OH:3H2O
  Sepiolite(d)     -5.52     13.14   18.66  Mg2Si3O7.5OH:3H2O
  SiO2(a)          -3.36     -6.03   -2.67  SiO2
  Sylvite          -9.43     -8.50    0.93  KCl
  Talc              1.92     22.73   20.82  Mg3Si4O10(OH)2
  Willemite        -0.51     14.41   14.91  Zn2SiO4
  Zn(OH)2(e)       -1.28     10.22   11.50  Zn(OH)2

**For a gas, SI = log10(fugacity). Fugacity = pressure * phi / 1 atm.
  For ideal gases, phi = 1.

Initial solution 5.	 2WBR1 

-----------------------------Solution composition------------------------------

	Elements           Molality       Moles

	Al                2.332e-03   2.332e-03
	Ca                9.115e-04   9.115e-04
	Cl                5.818e-05   5.818e-05
	Cu                7.285e-08   7.285e-08
	F                 3.364e-05   3.364e-05
	Fe                5.667e-10   5.667e-10
	K                 1.414e-05   1.414e-05
	Mg                1.230e-08   1.230e-08
	Mn                8.372e-10   8.372e-10
	N(5)              5.021e-05   5.021e-05
	Na                1.049e-02   1.049e-02
	Si                3.330e-05   3.330e-05
	Zn                1.468e-07   1.468e-07

----------------------------Description of solution----------------------------

                                       pH  =  11.820    
                                       pe  =   4.000    
      Specific Conductance (µS/cm,  30°C)  = 2871
                          Density (g/cm³)  =   0.99646
                               Volume (L)  =   1.00425
                        Activity of water  =   1.000
                 Ionic strength (mol/kgw)  =   1.363e-02
                       Mass of water (kg)  =   1.000e+00
                 Total alkalinity (eq/kg)  =   2.023e-02
                    Total carbon (mol/kg)  =   0.000e+00
                       Total CO2 (mol/kg)  =   0.000e+00
                         Temperature (°C)  =  29.80
                  Electrical balance (eq)  =  -1.042e-03
 Percent error, 100*(Cat-|An|)/(Cat+|An|)  =  -4.08
                               Iterations  =   7
                                  Total H  = 1.110327e+02
                                  Total O  = 5.552669e+01

----------------------------Distribution of species----------------------------

                                               Log       Log       Log    mole V
   Species          Molality    Activity  Molality  Activity     Gamma   cm³/mol

   OH-             1.079e-02   9.556e-03    -1.967    -2.020    -0.053     -3.86
   H+              1.677e-12   1.514e-12   -11.775   -11.820    -0.045      0.00
   H2O             5.551e+01   9.996e-01     1.744    -0.000     0.000     18.09
Al            2.332e-03
   Al(OH)4-        2.332e-03   2.073e-03    -2.632    -2.683    -0.051     (0)  
   Al(OH)3         1.545e-09   1.550e-09    -8.811    -8.810     0.001     (0)  
   Al(OH)2+        1.270e-14   1.132e-14   -13.896   -13.946    -0.050     (0)  
   AlOH+2          2.302e-21   1.456e-21   -20.638   -20.837    -0.199    -27.68
   AlF2+           8.480e-25   7.563e-25   -24.072   -24.121    -0.050     (0)  
   AlF3            2.826e-25   2.835e-25   -24.549   -24.547     0.001     (0)  
   AlF+2           7.854e-26   4.968e-26   -25.105   -25.304    -0.199     (0)  
   AlF4-           3.768e-27   3.349e-27   -26.424   -26.475    -0.051     (0)  
   Al+3            4.108e-28   1.630e-28   -27.386   -27.788    -0.402    -42.11
Ca            9.115e-04
   Ca+2            8.455e-04   5.344e-04    -3.073    -3.272    -0.199    -17.84
   CaOH+           6.598e-05   5.858e-05    -4.181    -4.232    -0.052     (0)  
Cl            5.818e-05
   Cl-             5.818e-05   5.156e-05    -4.235    -4.288    -0.052     18.27
   ZnOHCl          8.120e-15   8.145e-15   -14.090   -14.089     0.001     (0)  
   MnCl+           5.689e-15   5.066e-15   -14.245   -14.295    -0.050     -1.96
   ZnCl+           1.392e-18   1.235e-18   -17.856   -17.908    -0.052     -9.48
   MnCl2           1.137e-19   1.140e-19   -18.944   -18.943     0.001     80.39
   CuCl+           1.501e-21   1.332e-21   -20.824   -20.876    -0.052     -0.44
   CuCl2-          3.913e-22   3.471e-22   -21.407   -21.459    -0.052     (0)  
   ZnCl2           6.773e-23   6.794e-23   -22.169   -22.168     0.001     93.26
   MnCl3-          1.818e-24   1.619e-24   -23.740   -23.791    -0.050     43.27
   CuCl3-2         4.594e-26   2.889e-26   -25.338   -25.539    -0.201     (0)  
   CuCl2           3.868e-26   3.880e-26   -25.413   -25.411     0.001     36.21
   ZnCl3-          4.558e-27   4.043e-27   -26.341   -26.393    -0.052     17.38
   FeCl+           2.917e-31   2.590e-31   -30.535   -30.587    -0.052     (0)  
   ZnCl4-2         1.725e-31   1.085e-31   -30.763   -30.965    -0.201    146.11
   CuCl3-          8.701e-33   7.719e-33   -32.060   -32.112    -0.052     (0)  
   FeCl+2          1.295e-38   8.142e-39   -37.888   -38.089    -0.201     (0)  
   CuCl4-2         3.539e-39   2.225e-39   -38.451   -38.653    -0.201     (0)  
   FeCl2+          0.000e+00   0.000e+00   -41.742   -41.792    -0.050     (0)  
   FeCl3           0.000e+00   0.000e+00   -47.081   -47.080     0.001     (0)  
Cu(1)         4.741e-19
   Cu+             4.737e-19   4.176e-19   -18.324   -18.379    -0.055     (0)  
   CuCl2-          3.913e-22   3.471e-22   -21.407   -21.459    -0.052     (0)  
   CuCl3-2         4.594e-26   2.889e-26   -25.338   -25.539    -0.201     (0)  
Cu(2)         7.285e-08
   Cu(OH)2         6.916e-08   6.938e-08    -7.160    -7.159     0.001     (0)  
   Cu(OH)3-        3.110e-09   2.761e-09    -8.507    -8.559    -0.052     (0)  
[...]
   Fe2(OH)2+4      1.860e-36   5.105e-37   -35.731   -36.292    -0.561     (0)  
   FeCl3           1.171e-40   1.172e-40   -39.931   -39.931     0.001     (0)  
   Fe3(OH)4+5      0.000e+00   0.000e+00   -44.200   -45.078    -0.877     (0)  
H(0)          3.058e-34
   H2              1.529e-34   1.531e-34   -33.816   -33.815     0.001     28.60
K             7.441e-06
   K+              7.441e-06   6.857e-06    -5.128    -5.164    -0.035      9.22
Mg            1.792e-06
   MgOH+           9.009e-07   8.344e-07    -6.045    -6.079    -0.033     (0)  
   Mg+2            8.903e-07   6.524e-07    -6.050    -6.185    -0.135    -21.90
   MgF+            1.229e-09   1.134e-09    -8.910    -8.945    -0.035    -10.56
Mn(2)         8.371e-10
   MnOH+           7.196e-10   6.648e-10    -9.143    -9.177    -0.034     (0)  
   Mn+2            1.053e-10   7.726e-11    -9.977   -10.112    -0.135    -20.12
   Mn(OH)3-        1.208e-11   1.116e-11   -10.918   -10.952    -0.034     (0)  
   MnCl+           1.613e-14   1.490e-14   -13.792   -13.827    -0.034     -1.78
   MnF+            1.371e-14   1.267e-14   -13.863   -13.897    -0.034     (0)  
   Mn(NO3)2        7.905e-19   7.915e-19   -18.102   -18.102     0.001     39.59
   MnCl2           3.077e-19   3.081e-19   -18.512   -18.511     0.001     79.22
   MnCl3-          4.349e-24   4.018e-24   -23.362   -23.396    -0.034     43.16
Mn(3)         1.070e-31
   Mn+3            1.070e-31   5.558e-32   -30.970   -31.255    -0.285     (0)  
N(5)          5.547e-05
   NO3-            5.547e-05   5.106e-05    -4.256    -4.292    -0.036     30.04
   Mn(NO3)2        7.905e-19   7.915e-19   -18.102   -18.102     0.001     39.59
Na            4.929e-03
   Na+             4.929e-03   4.551e-03    -2.307    -2.342    -0.035     -1.13
   NaF             6.198e-08   6.206e-08    -7.208    -7.207     0.001      7.47
   NaOH            1.487e-15   1.489e-15   -14.828   -14.827     0.001     (0)  
O(0)          2.615e-23
   O2              1.308e-23   1.309e-23   -22.884   -22.883     0.001     30.83
Si            4.211e-05
   H3SiO4-         4.009e-05   3.697e-05    -4.397    -4.432    -0.035     28.12
   H2SiO4-2        1.042e-06   7.614e-07    -5.982    -6.118    -0.136     (0)  
   H4SiO4          9.836e-07   9.849e-07    -6.007    -6.007     0.001     51.62
   SiF6-2          0.000e+00   0.000e+00   -48.952   -49.089    -0.138     43.03
Zn            3.166e-07
   Zn(OH)2         1.811e-07   1.813e-07    -6.742    -6.742     0.001     (0)  
   Zn(OH)3-        1.299e-07   1.198e-07    -6.887    -6.922    -0.035     (0)  
   Zn(OH)4-2       5.479e-09   3.966e-09    -8.261    -8.402    -0.140     (0)  
   ZnOH+           1.271e-10   1.173e-10    -9.896    -9.931    -0.035     (0)  
   Zn+2            4.531e-13   3.301e-13   -12.344   -12.481    -0.138    -25.60
   ZnOHCl          1.080e-13   1.081e-13   -12.967   -12.966     0.001     (0)  
   ZnF+            1.288e-16   1.188e-16   -15.890   -15.925    -0.035     (0)  
   ZnCl+           5.888e-17   5.430e-17   -16.230   -16.265    -0.035     -8.55
   ZnBr+           3.675e-18   3.390e-18   -17.435   -17.470    -0.035     (0)  
   ZnCl2           2.752e-21   2.756e-21   -20.560   -20.560     0.001     91.40
   ZnBr2           5.263e-23   5.270e-23   -22.279   -22.278     0.001     (0)  
   ZnCl3-          1.644e-25   1.516e-25   -24.784   -24.819    -0.035     17.49
   ZnCl4-2         5.171e-30   3.766e-30   -29.286   -29.424    -0.138    146.03

------------------------------Saturation indices-------------------------------

  Phase               SI** log IAP   log K(304 K,   1 atm)

  Al(OH)3(a)       -2.72      7.71   10.42  Al(OH)3
  Albite           -5.77    -23.40  -17.63  NaAlSi3O8
  Anorthite        -2.13    -21.68  -19.55  CaAl2Si2O8
  Ca-Montmorillonite  -8.16    -52.35  -44.20  Ca0.165Al2.33Si3.67O10(OH)2
  Chalcedony       -2.52     -6.01   -3.48  SiO2
  Chlorite(14A)    13.44     79.67   66.23  Mg5Al2Si3O10(OH)8
  Chrysotile        5.87     37.35   31.48  Mg3Si2O5(OH)4
  Fe(OH)3(a)        0.98      5.87    4.89  Fe(OH)3
  Fluorite         -2.30    -12.84  -10.53  CaF2
  Gibbsite         -0.08      7.71    7.79  Al(OH)3
  Goethite          7.08      5.87   -1.21  FeOOH
  H2(g)           -30.70    -33.82   -3.11  H2
  H2O(g)           -1.35     -0.00    1.35  H2O
  Halite           -8.24     -6.67    1.57  NaCl
  Hausmannite       8.63     68.22   59.60  Mn3O4
  Hematite         16.19     11.75   -4.45  Fe2O3
  Illite           -6.75    -46.24  -39.49  K0.6Mg0.25Al2.3Si3.5O10(OH)2
  K-feldspar       -6.09    -26.22  -20.13  KAlSi3O8
  K-mica           -0.60     11.26   11.86  KAl3Si3O10(OH)2
  Kaolinite        -3.53      3.40    6.93  Al2Si2O5(OH)4
  Manganite         2.51     27.85   25.34  MnOOH
  O2(g)           -19.95    -22.88   -2.93  O2
  Pyrochroite      -2.67     12.53   15.20  Mn(OH)2
  Pyrolusite        2.71     43.17   40.45  MnO2:H2O
  Quartz           -2.11     -6.01   -3.90  SiO2
  Sepiolite        -0.72     14.89   15.61  Mg2Si3O7.5OH:3H2O
  Sepiolite(d)     -3.77     14.89   18.66  Mg2Si3O7.5OH:3H2O
  SiO2(a)          -3.34     -6.01   -2.66  SiO2
  Sylvite         -10.42     -9.49    0.93  KCl
  Talc              4.60     25.34   20.74  Mg3Si4O10(OH)2
  Willemite        -0.54     14.31   14.86  Zn2SiO4
  Zn(OH)2(e)       -1.34     10.16   11.50  Zn(OH)2

**For a gas, SI = log10(fugacity). Fugacity = pressure * phi / 1 atm.
  For ideal gases, phi = 1.

Initial solution 20.	 5WBRG2  

-----------------------------Solution composition------------------------------

	Elements           Molality       Moles

	Al                4.867e-04   4.867e-04
	Ca                1.854e-03   1.854e-03
	Cl                4.147e-05   4.147e-05
	Cu                7.610e-08   7.610e-08
	F                 2.625e-05   2.625e-05
	Fe                5.666e-10   5.666e-10
	K                 5.563e-06   5.563e-06
	Mg                1.230e-08   1.230e-08
	Mn                8.371e-10   8.371e-10
	N(5)              5.675e-05   5.675e-05
	Na                2.479e-03   2.479e-03
	Si                1.149e-05   1.149e-05
	Zn                1.205e-07   1.205e-07

----------------------------Description of solution----------------------------

                                       pH  =  11.470    
                                       pe  =   4.000    
      Specific Conductance (µS/cm,  30°C)  = 1360
                          Density (g/cm³)  =   0.99587
                               Volume (L)  =   1.00442
                        Activity of water  =   1.000
                 Ionic strength (mol/kgw)  =   7.592e-03
                       Mass of water (kg)  =   1.000e+00
                 Total alkalinity (eq/kg)  =   6.889e-03
                    Total carbon (mol/kg)  =   0.000e+00
                       Total CO2 (mol/kg)  =   0.000e+00
                         Temperature (°C)  =  30.30
                  Electrical balance (eq)  =   6.390e-04
 Percent error, 100*(Cat-|An|)/(Cat+|An|)  =   5.50
                               Iterations  =   6
                                  Total H  = 1.110193e+02
                                  Total O  = 5.551331e+01

----------------------------Distribution of species----------------------------

                                               Log       Log       Log    mole V
   Species          Molality    Activity  Molality  Activity     Gamma   cm³/mol

   OH-             4.863e-03   4.427e-03    -2.313    -2.354    -0.041     -3.88
   H+              3.678e-12   3.388e-12   -11.434   -11.470    -0.036      0.00
   H2O             5.551e+01   9.998e-01     1.744    -0.000     0.000     18.10
Al            4.867e-04
   Al(OH)4-        4.867e-04   4.442e-04    -3.313    -3.352    -0.040     (0)  
   Al(OH)3         7.360e-10   7.372e-10    -9.133    -9.132     0.001     (0)  
   Al(OH)2+        1.274e-14   1.165e-14   -13.895   -13.934    -0.039     (0)  
   AlOH+2          4.601e-21   3.218e-21   -20.337   -20.492    -0.155    -27.78
   AlF2+           2.585e-24   2.364e-24   -23.588   -23.626    -0.039     (0)  
   AlF3            7.130e-25   7.142e-25   -24.147   -24.146     0.001     (0)  
   AlF+2           2.750e-25   1.923e-25   -24.561   -24.716    -0.155     (0)  
   AlF4-           7.447e-27   6.796e-27   -26.128   -26.168    -0.040     (0)  
   Al+3            1.634e-27   7.806e-28   -26.787   -27.108    -0.321    -42.30
Ca            1.854e-03
   Ca+2            1.787e-03   1.248e-03    -2.748    -2.904    -0.156    -17.92
   CaOH+           6.705e-05   6.113e-05    -4.174    -4.214    -0.040     (0)  
Cl            4.147e-05
   Cl-             4.147e-05   3.778e-05    -4.382    -4.423    -0.040     18.25
   ZnOHCl          1.942e-14   1.946e-14   -13.712   -13.711     0.001     (0)  
   MnCl+           9.684e-15   8.848e-15   -14.014   -14.053    -0.039     -1.89
   ZnCl+           7.398e-18   6.744e-18   -17.131   -17.171    -0.040     -9.05
   MnCl2           1.457e-19   1.459e-19   -18.837   -18.836     0.001     79.85
   CuCl+           5.908e-21   5.385e-21   -20.229   -20.269    -0.040     -0.58
   CuCl2-          1.106e-21   1.008e-21   -20.956   -20.997    -0.040     (0)  
   ZnCl2           2.719e-22   2.724e-22   -21.566   -21.565     0.001     92.41
   MnCl3-          1.662e-24   1.518e-24   -23.779   -23.819    -0.039     43.20
   CuCl2           1.154e-25   1.156e-25   -24.938   -24.937     0.001     36.71
   CuCl3-2         8.837e-26   6.157e-26   -25.054   -25.211    -0.157     (0)  
   ZnCl3-          1.307e-26   1.191e-26   -25.884   -25.924    -0.040     17.44
   FeCl+           4.771e-30   4.350e-30   -29.321   -29.362    -0.040     (0)  
   ZnCl4-2         3.374e-31   2.351e-31   -30.472   -30.629    -0.157    146.02
   CuCl3-          1.864e-32   1.699e-32   -31.730   -31.770    -0.040     (0)  
   FeCl+2          2.046e-37   1.426e-37   -36.689   -36.846    -0.157     (0)  
   CuCl4-2         5.208e-39   3.629e-39   -38.283   -38.440    -0.157     (0)  
   FeCl2+          0.000e+00   0.000e+00   -40.651   -40.690    -0.039     (0)  
   FeCl3           0.000e+00   0.000e+00   -46.114   -46.113     0.001     (0)  
Cu(1)         2.491e-18
   Cu+             2.490e-18   2.261e-18   -17.604   -17.646    -0.042     (0)  
   CuCl2-          1.106e-21   1.008e-21   -20.956   -20.997    -0.040     (0)  
   CuCl3-2         8.837e-26   6.157e-26   -25.054   -25.211    -0.157     (0)  
Cu(2)         7.610e-08
   Cu(OH)2         7.453e-08   7.466e-08    -7.128    -7.127     0.001     (0)  
   Cu(OH)3-        1.456e-09   1.327e-09    -8.837    -8.877    -0.040     (0)  
   Cu(OH)4-2       1.131e-10   7.815e-11    -9.947   -10.107    -0.160     (0)  
   CuOH+           1.329e-13   1.211e-13   -12.877   -12.917    -0.040     (0)  
   Cu+2            5.838e-17   4.104e-17   -16.234   -16.387    -0.153    -26.50
   CuF+            2.051e-20   1.870e-20   -19.688   -19.728    -0.040     (0)  
   Cu2(OH)2+2      1.557e-20   1.076e-20   -19.808   -19.968    -0.160     (0)  
   CuCl+           5.908e-21   5.385e-21   -20.229   -20.269    -0.040     -0.58
   CuCl2           1.154e-25   1.156e-25   -24.938   -24.937     0.001     36.71
   CuCl3-          1.864e-32   1.699e-32   -31.730   -31.770    -0.040     (0)  
   CuCl4-2         5.208e-39   3.629e-39   -38.283   -38.440    -0.157     (0)  
F             2.625e-05
   F-              2.622e-05   2.387e-05    -4.581    -4.622    -0.041     -1.23
   NaF             3.104e-08   3.109e-08    -7.508    -7.507     0.001      7.45
   MgF+            7.085e-12   6.466e-12   -11.150   -11.189    -0.040    -10.55
   HF              1.334e-13   1.336e-13   -12.875   -12.874     0.001     12.72
   MnF+            1.039e-14   9.496e-15   -13.983   -14.022    -0.039     (0)  
   ZnF+            2.081e-17   1.898e-17   -16.682   -16.722    -0.040     (0)  
   HF2-            1.394e-17   1.271e-17   -16.856   -16.896    -0.040     22.32
   CuF+            2.051e-20   1.870e-20   -19.688   -19.728    -0.040     (0)  
   AlF2+           2.585e-24   2.364e-24   -23.588   -23.626    -0.039     (0)  
   AlF3            7.130e-25   7.142e-25   -24.147   -24.146     0.001     (0)  
   AlF+2           2.750e-25   1.923e-25   -24.561   -24.716    -0.155     (0)  
   AlF4-           7.447e-27   6.796e-27   -26.128   -26.168    -0.040     (0)  
   FeF+            2.184e-29   1.991e-29   -28.661   -28.701    -0.040     (0)  
   FeF+2           6.231e-33   4.342e-33   -32.205   -32.362    -0.157     (0)  
   FeF2+           4.805e-33   4.390e-33   -32.318   -32.358    -0.039     (0)  
   FeF3            1.688e-34   1.691e-34   -33.773   -33.772     0.001     (0)  
   SiF6-2          0.000e+00   0.000e+00   -50.202   -50.359    -0.157     43.05
Fe(2)         6.310e-22
   Fe(OH)3-        5.730e-22   5.235e-22   -21.242   -21.281    -0.039     (0)  
   Fe(OH)2         4.529e-23   4.537e-23   -22.344   -22.343     0.001     (0)  
   FeOH+           1.257e-23   1.149e-23   -22.901   -22.940    -0.039     (0)  
   Fe+2            1.187e-25   8.342e-26   -24.926   -25.079    -0.153    -21.66
   FeF+            2.184e-29   1.991e-29   -28.661   -28.701    -0.040     (0)  
   FeCl+           4.771e-30   4.350e-30   -29.321   -29.362    -0.040     (0)  
Fe(3)         5.666e-10
   Fe(OH)4-        5.651e-10   5.167e-10    -9.248    -9.287    -0.039     (0)  
   Fe(OH)3         1.555e-12   1.558e-12   -11.808   -11.808     0.001     (0)  
   Fe(OH)2+        3.571e-17   3.265e-17   -16.447   -16.486    -0.039     (0)  
   FeOH+2          3.937e-25   2.743e-25   -24.405   -24.562    -0.157     (0)  
   FeF+2           6.231e-33   4.342e-33   -32.205   -32.362    -0.157     (0)  
   FeF2+           4.805e-33   4.390e-33   -32.318   -32.358    -0.039     (0)  
   Fe+3            2.218e-34   1.060e-34   -33.654   -33.975    -0.321     (0)  
   FeF3            1.688e-34   1.691e-34   -33.773   -33.772     0.001     (0)  
   FeCl+2          2.046e-37   1.426e-37   -36.689   -36.846    -0.157     (0)  
   FeCl2+          0.000e+00   0.000e+00   -40.651   -40.690    -0.039     (0)  
   FeCl3           0.000e+00   0.000e+00   -46.114   -46.113     0.001     (0)  
   Fe2(OH)2+4      0.000e+00   0.000e+00   -47.146   -47.787    -0.641     (0)  
   Fe3(OH)4+5      0.000e+00   0.000e+00   -61.160   -62.162    -1.002     (0)  
H(0)          1.541e-34
   H2              7.704e-35   7.718e-35   -34.113   -34.113     0.001     28.60
K             5.563e-06
   K+              5.563e-06   5.066e-06    -5.255    -5.295    -0.041      9.22
Mg            1.230e-08
   MgOH+           6.978e-09   6.396e-09    -8.156    -8.194    -0.038     (0)  
   Mg+2            5.311e-09   3.730e-09    -8.275    -8.428    -0.153    -21.84
   MgF+            7.085e-12   6.466e-12   -11.150   -11.189    -0.040    -10.55
Mn(2)         8.371e-10
   MnOH+           7.296e-10   6.666e-10    -9.137    -9.176    -0.039     (0)  
   Mn+2            8.178e-11   5.749e-11   -10.087   -10.240    -0.153    -19.95
   Mn(OH)3-        2.562e-11   2.341e-11   -10.591   -10.631    -0.039     (0)  
   MnF+            1.039e-14   9.496e-15   -13.983   -14.022    -0.039     (0)  
   MnCl+           9.684e-15   8.848e-15   -14.014   -14.053    -0.039     -1.89
   Mn(NO3)2        6.012e-19   6.023e-19   -18.221   -18.220     0.001     39.72
   MnCl2           1.457e-19   1.459e-19   -18.837   -18.836     0.001     79.85
   MnCl3-          1.662e-24   1.518e-24   -23.779   -23.819    -0.039     43.20
Mn(3)         7.957e-32
   Mn+3            7.957e-32   3.801e-32   -31.099   -31.420    -0.321     (0)  
N(5)          5.675e-05
   NO3-            5.675e-05   5.160e-05    -4.246    -4.287    -0.041     30.01
   Mn(NO3)2        6.012e-19   6.023e-19   -18.221   -18.220     0.001     39.72
Na            2.479e-03
   Na+             2.479e-03   2.263e-03    -2.606    -2.645    -0.040     -1.14
   NaF             3.104e-08   3.109e-08    -7.508    -7.507     0.001      7.45
   NaOH            1.000e-15   1.002e-15   -15.000   -14.999     0.001     (0)  
O(0)          6.695e-23
   O2              3.347e-23   3.353e-23   -22.475   -22.475     0.001     30.79
Si            1.149e-05
   H3SiO4-         1.090e-05   9.932e-06    -4.963    -5.003    -0.040     28.13
   H2SiO4-2        3.984e-07   2.786e-07    -6.400    -6.555    -0.155     (0)  
   H4SiO4          1.907e-07   1.910e-07    -6.720    -6.719     0.001     51.66
   SiF6-2          0.000e+00   0.000e+00   -50.202   -50.359    -0.157     43.05
Zn            1.205e-07
   Zn(OH)3-        5.913e-08   5.392e-08    -7.228    -7.268    -0.040     (0)  
   Zn(OH)2         5.768e-08   5.778e-08    -7.239    -7.238     0.001     (0)  
   Zn(OH)4-2       3.647e-09   2.521e-09    -8.438    -8.598    -0.160     (0)  
   ZnOH+           2.777e-11   2.532e-11   -10.557   -10.597    -0.040     (0)  
   Zn+2            7.566e-14   5.272e-14   -13.121   -13.278    -0.157    -25.52
   ZnOHCl          1.942e-14   1.946e-14   -13.712   -13.711     0.001     (0)  
   ZnF+            2.081e-17   1.898e-17   -16.682   -16.722    -0.040     (0)  
   ZnCl+           7.398e-18   6.744e-18   -17.131   -17.171    -0.040     -9.05
   ZnCl2           2.719e-22   2.724e-22   -21.566   -21.565     0.001     92.41
   ZnCl3-          1.307e-26   1.191e-26   -25.884   -25.924    -0.040     17.44
   ZnCl4-2         3.374e-31   2.351e-31   -30.472   -30.629    -0.157    146.02

------------------------------Saturation indices-------------------------------

  Phase               SI** log IAP   log K(303 K,   1 atm)

  Al(OH)3(a)       -3.16      7.30   10.46  Al(OH)3
  Albite           -8.48    -26.15  -17.67  NaAlSi3O8
  Anorthite        -3.48    -23.05  -19.57  CaAl2Si2O8
  Ca-Montmorillonite -11.61    -55.89  -44.28  Ca0.165Al2.33Si3.67O10(OH)2
  Chalcedony       -3.23     -6.72   -3.49  SiO2
  Chlorite(14A)     0.57     67.01   66.44  Mg5Al2Si3O10(OH)8
  Chrysotile       -1.46     30.10   31.56  Mg3Si2O5(OH)4
  Fe(OH)3(a)       -4.46      0.43    4.89  Fe(OH)3
  Fluorite         -1.61    -12.15  -10.54  CaF2
  Gibbsite         -0.52      7.30    7.82  Al(OH)3
  Goethite          1.62      0.44   -1.19  FeOOH
  H2(g)           -31.00    -34.11   -3.11  H2
  H2O(g)           -1.37     -0.00    1.37  H2O
  Halite           -8.64     -7.07    1.57  NaCl
  Hausmannite       9.30     69.04   59.74  Mn3O4
  Hematite          5.27      0.87   -4.40  Fe2O3
  Illite          -10.71    -50.27  -39.57  K0.6Mg0.25Al2.3Si3.5O10(OH)2
  K-feldspar       -8.63    -28.80  -20.18  KAlSi3O8
  K-mica           -4.02      7.93   11.94  KAl3Si3O10(OH)2
  Kaolinite        -5.82      1.17    6.98  Al2Si2O5(OH)4
  Manganite         2.83     28.17   25.34  MnOOH
  O2(g)           -19.55    -22.47   -2.93  O2
  Pyrochroite      -2.50     12.70   15.20  Mn(OH)2
  Pyrolusite        3.09     43.64   40.55  MnO2:H2O
  Quartz           -2.82     -6.72   -3.90  SiO2
  Sepiolite        -6.76      8.87   15.62  Mg2Si3O7.5OH:3H2O
  Sepiolite(d)     -9.79      8.87   18.66  Mg2Si3O7.5OH:3H2O
  SiO2(a)          -4.05     -6.72   -2.67  SiO2
  Sylvite         -10.64     -9.72    0.93  KCl
  Talc             -4.15     16.66   20.81  Mg3Si4O10(OH)2
  Willemite        -2.30     12.60   14.90  Zn2SiO4
  Zn(OH)2(e)       -1.84      9.66   11.50  Zn(OH)2

**For a gas, SI = log10(fugacity). Fugacity = pressure * phi / 1 atm.
  For ideal gases, phi = 1.

------------------
End of simulation.
------------------

------------------------------------
Reading input data for simulation 3.
------------------------------------

-------------------------------
End of Run after 0.629 Seconds.
-------------------------------

