   Input file: C:\Users\jorgeft\Desktop\master thesis\selected_values\simulation3.pqi
  Output file: C:\Users\jorgeft\Desktop\master thesis\selected_values\simulation3.pqo
Database file: C:\Program Files (x86)\USGS\Phreeqc Interactive 3.4.0-12927\database\llnl.dat

------------------
Reading data base.
------------------

	LLNL_AQUEOUS_MODEL_PARAMETERS
	NAMED_EXPRESSIONS
	SOLUTION_MASTER_SPECIES
	SOLUTION_SPECIES
	PHASES
	EXCHANGE_MASTER_SPECIES
	EXCHANGE_SPECIES
	SURFACE_MASTER_SPECIES
	SURFACE_SPECIES
	RATES
	END
------------------------------------
Reading input data for simulation 1.
------------------------------------

	DATABASE C:\Program Files (x86)\USGS\Phreeqc Interactive 3.4.0-12927\database\llnl.dat
	USER_PUNCH 1
	headings Sample_Ref	EC_(uS/cm) TDS_g/kg-solution alk_mg/L
	start
	10 PUNCH Description
	25 PUNCH SC
	32 PUNCH (RHO * SOLN_VOL - TOT("water")) * 1000 / (RHO * SOLN_VOL)
	40 PUNCH alk * ((50.05) / 1000)
	end
	SELECTED_OUTPUT 1
	file simulation3.txt
	charge_balance
	ionic_strength
	temperature
	percent_error
	alkalinity
	totals	Na	K	Mg	Ca	F	Cl	S(+6)	Br	N(+5)	P(5) 	Al	V	Cr	Mn	Fe	Cu	Zn	Ga	As	Si
	molalities OH- HCO3- # add here other aqueous species of interest
	saturation_indices Fe(OH)2 Fe(OH)3 Gibbsite Goethite Pyrolusite Kaolinite Diaspore Magnetite Boehmite Cuprite
	END
------------------
End of simulation.
------------------

------------------------------------
Reading input data for simulation 2.
------------------------------------

	SOLUTION_SPREAD
	units mg/l
	Number 	Description	pH	pe	Temp	Na	K	Mg	Ca	F	Cl	S(+6)	Br	N(+5)	P(5) 	Al	V	Cr	Mn	Fe	Cu	Zn	Ga	As	Si
	1	1WBR1	11.98	4	25.6	4.466E+02	1.016E+00	2.989E-04	7.263E+01	1.176E+00	3.264E+00	0.000E+00	0.000E+00	7.149E-01	0.000E+00	1.345E+02	5.041E-01	5.775E-02	6.179E-03	3.164E-05	1.263E-01	7.538E-02	1.853E-01	1.191E-02	2.13E-01
	2	1WBRA2	11.76	4	25.6	4.305E+02	3.910E+00	2.989E-04	5.956E+01	5.423E-01	9.857E+00	0.000E+00	0.000E+00	7.416E-01	0.000E+00	1.008E+02	8.033E-01	8.434E-02	4.598E-05	7.710E-01	3.650E-02	1.114E-02	1.549E-01	3.148E-02	1.26E+01
	3	1WBRS1	11.93	4	29.3	4.479E+02	9.758E-01	2.989E-04	5.678E+01	1.489E+00	3.110E+00	0.000E+00	0.000E+00	3.200E+00	0.000E+00	1.303E+02	8.851E-01	4.984E-02	4.598E-05	2.602E-02	6.330E-03	9.077E-03	1.927E-01	3.106E-02	1.69E+01
	4	1WBRG2 	10.92	4	30.2	7.317E+02	1.526E+00	3.778E-02	5.092E+02	4.666E-01	4.188E+00	7.585E+00	0.000E+00	7.131E-01	0.000E+00	2.312E-01	1.404E-01	4.518E-02	4.598E-05	2.473E-01	2.249E-02	1.791E-02	2.140E-02	3.145E-05	1.05E+00
	5	2WBR1	11.82	4	29.8	2.411E+02	5.526E-01	2.989E-04	3.652E+01	6.388E-01	2.062E+00	0.000E+00	0.000E+00	7.031E-01	0.000E+00	6.291E+01	3.541E-01	2.387E-02	4.598E-05	3.164E-05	4.628E-03	9.593E-03	5.921E-02	9.287E-03	2.00E+00
	6	2WBRA1	11.54	4	30.1	2.695E+02	2.429E+00	2.989E-04	4.438E+01	3.151E+00	2.970E+00	0.000E+00	3.374E+00	7.437E-01	0.000E+00	6.661E+01	5.566E-01	4.852E-02	6.018E-03	2.293E+00	9.681E-02	5.025E-02	6.954E-02	2.424E-02	8.96E+00
	7	2WBRS1 	11.76	4	30.1	2.222E+02	6.034E-01	3.074E-02	4.074E+01	6.606E-01	2.205E+00	0.000E+00	0.000E+00	7.062E-01	0.000E+00	5.003E+01	5.876E-01	1.405E-02	4.598E-05	8.930E-01	4.000E-03	6.701E-03	4.195E-02	2.754E-02	1.08E+01
	8	2WBRG1	10.94	4	29.6	2.856E+02	6.873E-01	3.599E-02	4.981E+02	5.377E-01	2.058E+00	5.151E+00	0.000E+00	7.048E-01	0.000E+00	8.083E-02	1.400E-01	1.164E-02	4.598E-05	2.619E-01	6.767E-03	1.588E-02	1.259E-02	3.145E-05	1.03E+01
	9	3WBR2	11.69	4	30.2	1.558E+02	4.365E-01	2.989E-04	3.865E+01	3.706E-01	1.772E+00	0.000E+00	0.000E+00	7.677E-01	0.000E+00	3.401E+01	3.290E-01	2.505E-02	6.990E-03	6.816E-02	1.293E-01	7.041E-02	1.835E-02	3.145E-05	1.15E+01
	10	3WBRA2	11.33	4	29.6	1.674E+02	1.425E+00	4.053E-02	3.938E+01	4.710E-01	2.153E+00	0.000E+00	3.506E+00	9.940E-01	0.000E+00	3.634E+01	3.900E-01	4.029E-02	6.621E-03	1.002E+01	1.029E-02	2.066E-02	3.030E-02	1.754E-02	1.23E+01
	11	3WBRS2 	11.61	4	31.4	1.565E+02	4.925E-01	5.958E-02	4.246E+01	3.538E-01	2.560E+00	0.000E+00	0.000E+00	7.920E-01	0.000E+00	3.705E+01	3.459E-01	2.246E-02	4.598E-05	3.425E+00	7.798E-03	1.496E-02	1.904E-02	1.686E-02	1.51E-01
	12	3WBRG3 	11.41	4	29.7	1.115E+02	3.457E-01	2.989E-04	9.962E+01	4.344E-01	9.533E+00	5.072E-01	0.000E+00	8.021E-01	1.710E+00	4.304E+00	1.301E-01	4.955E-03	4.598E-05	4.373E-02	4.805E-03	1.232E-02	2.319E-02	3.145E-05	2.24E+01
	13	4WBR2	11.6	4	29.9	1.208E+02	3.831E-01	2.989E-04	2.827E+01	3.398E-01	1.814E+00	0.000E+00	0.000E+00	7.682E-01	0.000E+00	2.532E+01	2.740E-01	6.597E-03	4.823E-03	1.469E-01	9.543E-02	5.282E-02	1.028E-02	9.153E-03	2.50E+01
	14	4WBRA2	11.29	4	29.3	1.159E+02	1.093E+00	1.645E-01	1.577E+01	3.901E-01	2.051E+00	0.000E+00	3.438E+00	7.978E-01	0.000E+00	2.540E+01	2.494E-01	4.258E-02	1.708E-02	1.755E+01	3.138E-02	4.212E-02	2.211E-02	1.740E-02	3.29E+00
	15	4WBRS1 	11.35	4	30.7	1.232E+02	3.781E-01	2.989E-04	2.660E+01	2.959E-01	1.813E+00	0.000E+00	0.000E+00	7.700E-01	0.000E+00	2.600E+01	2.121E-01	1.242E-02	4.598E-05	3.394E+00	2.782E-02	2.112E-02	9.907E-03	9.741E-03	2.11E+01
	16	4WBRG2 	11.55	4	28.1	7.201E+01	2.514E-01	2.989E-04	5.905E+01	2.747E-01	1.525E+00	0.000E+00	0.000E+00	7.647E-01	2.655E+00	1.039E+01	9.965E-02	3.725E-05	6.581E-03	3.164E-05	9.460E-02	6.479E-02	1.967E-02	3.145E-05	1.61E+01
	17	5WBR2	11.52	4	30.4	1.055E+02	3.471E-01	2.989E-04	1.803E+01	3.897E-01	1.605E+00	0.000E+00	3.256E+00	0.000E+00	0.000E+00	2.237E+01	2.348E-01	5.353E-03	4.598E-05	4.892E-01	3.896E-03	9.882E-03	7.873E-03	1.627E-02	2.07E+01
	18	5WBRA2	11.23	4	30.2	9.749E+01	2.800E+00	1.053E-01	1.603E+01	4.317E-01	1.780E+00	0.000E+00	3.279E+00	7.792E-01	0.000E+00	2.156E+01	1.809E-01	4.231E-02	1.700E-02	1.932E+01	9.744E-03	1.216E-01	1.988E-02	1.154E-02	6.74E+00
	19	5WBRS2 	11.32	4	30.9	1.133E+02	2.909E-01	4.357E-02	1.461E+01	4.898E-01	1.821E+00	0.000E+00	3.389E+00	7.768E-01	0.000E+00	2.677E+01	1.508E-01	1.464E-02	4.598E-05	6.748E+00	4.460E-03	2.069E-02	1.113E-02	8.853E-03	2.53E+00
	20	5WBRG2 	11.47	4	30.3	5.698E+01	2.175E-01	2.989E-04	7.428E+01	4.987E-01	1.470E+00	0.000E+00	0.000E+00	7.947E-01	3.935E+00	1.313E+01	7.382E-02	3.725E-05	4.598E-05	3.164E-05	4.835E-03	7.875E-03	1.513E-02	3.145E-05	6.90E-01
	END
-------------------------------------------
Beginning of initial solution calculations.
-------------------------------------------

Initial solution 1.	 1WBR1 

-----------------------------Solution composition------------------------------

	Elements           Molality       Moles

	Al                4.988e-03   4.988e-03
	As                1.591e-07   1.591e-07
	Ca                1.813e-03   1.813e-03
	Cl                9.213e-05   9.213e-05
	Cr                4.983e-07   4.983e-07
	Cu                1.989e-06   1.989e-06
	F                 6.194e-05   6.194e-05
	Fe                5.669e-10   5.669e-10
	Ga                2.659e-06   2.659e-06
	K                 2.600e-05   2.600e-05
	Mg                1.231e-08   1.231e-08
	Mn                1.125e-07   1.125e-07
	N(5)              5.107e-05   5.107e-05
	Na                1.944e-02   1.944e-02
	Si                3.548e-06   3.548e-06
	V                 9.902e-06   9.902e-06
	Zn                1.154e-06   1.154e-06

----------------------------Description of solution----------------------------

                                       pH  =  11.980    
                                       pe  =   4.000    
                        Activity of water  =   0.999
                 Ionic strength (mol/kgw)  =   2.130e-02
                       Mass of water (kg)  =   1.000e+00
                 Total alkalinity (eq/kg)  =   3.130e-02
                    Total carbon (mol/kg)  =   0.000e+00
                       Total CO2 (mol/kg)  =   0.000e+00
                         Temperature (°C)  =  25.60
                  Electrical balance (eq)  =   6.576e-03
 Percent error, 100*(Cat-|An|)/(Cat+|An|)  =  16.76
                               Iterations  =  23
                                  Total H  = 1.110620e+02
                                  Total O  = 5.554682e+01

----------------------------Distribution of species----------------------------

                                               Log       Log       Log    mole V
   Species          Molality    Activity  Molality  Activity     Gamma   cm³/mol

   OH-             1.112e-02   9.617e-03    -1.954    -2.017    -0.063     (0)  
   H+              1.178e-12   1.047e-12   -11.929   -11.980    -0.051      0.00
   H2O             5.553e+01   9.994e-01     1.744    -0.000     0.000     18.07
Al            4.988e-03
   AlO2-           4.974e-03   4.314e-03    -2.303    -2.365    -0.062     (0)  
   NaAlO2          1.396e-05   1.396e-05    -4.855    -4.855     0.000     (0)  
   HAlO2           1.281e-08   1.281e-08    -7.892    -7.892     0.000     (0)  
   Al(OH)2+        1.024e-14   8.878e-15   -13.990   -14.052    -0.062     (0)  
   AlOH+2          6.770e-21   3.852e-21   -20.169   -20.414    -0.245     (0)  
   AlF2+           4.474e-24   3.881e-24   -23.349   -23.411    -0.062     (0)  
   AlF3            2.593e-24   2.593e-24   -23.586   -23.586     0.000     (0)  
   AlF+2           3.228e-25   1.836e-25   -24.491   -24.736    -0.245     (0)  
   AlF4-           3.986e-26   3.458e-26   -25.399   -25.461    -0.062     (0)  
   Al+3            1.018e-27   3.460e-28   -26.992   -27.461    -0.469     (0)  
   Al2(OH)2+4      1.960e-38   2.225e-39   -37.708   -38.653    -0.945     (0)  
   Al3(OH)4+5      0.000e+00   0.000e+00   -46.895   -48.344    -1.449     (0)  
   Al13O4(OH)24+7   0.000e+00   0.000e+00   -69.528   -72.370    -2.842     (0)  
As(-3)        0.000e+00
   AsH3            0.000e+00   0.000e+00  -166.059  -166.059     0.000     (0)  
As(3)         0.000e+00
   AsO2OH-2        0.000e+00   0.000e+00   -61.302   -61.552    -0.250     (0)  
   H2AsO3-         0.000e+00   0.000e+00   -62.469   -62.531    -0.062     (0)  
   AsO2-           0.000e+00   0.000e+00   -62.490   -62.552    -0.062     (0)  
   HAsO2           0.000e+00   0.000e+00   -65.249   -65.249     0.000     (0)  
   As(OH)3         0.000e+00   0.000e+00   -65.307   -65.307     0.000     (0)  
As(5)         1.591e-07
   AsO3F-2         1.591e-07   8.948e-08    -6.798    -7.048    -0.250     (0)  
   HAsO3F-         8.021e-14   6.957e-14   -13.096   -13.158    -0.062     (0)  
   AsO4-3          1.384e-37   3.784e-38   -36.859   -37.422    -0.563     (0)  
   HAsO4-2         2.706e-38   1.522e-38   -37.568   -37.818    -0.250     (0)  
   H2AsO4-         0.000e+00   0.000e+00   -42.957   -43.019    -0.062     (0)  
   H3AsO4          0.000e+00   0.000e+00   -52.750   -52.750     0.000     (0)  
Ca            1.813e-03
   Ca+2            1.661e-03   9.755e-04    -2.780    -3.011    -0.231     (0)  
   CaOH+           1.516e-04   1.315e-04    -3.819    -3.881    -0.062     (0)  
   CaF+            3.050e-07   2.645e-07    -6.516    -6.578    -0.062     (0)  
   CaNO3+          2.470e-07   2.142e-07    -6.607    -6.669    -0.062     (0)  
   CaCl+           1.892e-08   1.641e-08    -7.723    -7.785    -0.062     (0)  
   CaCl2           1.520e-12   1.520e-12   -11.818   -11.818     0.000     (0)  
Cl(-1)        9.213e-05
   Cl-             9.187e-05   7.920e-05    -4.037    -4.101    -0.064     (0)  
   NaCl            2.352e-07   2.352e-07    -6.629    -6.629     0.000     (0)  
   CaCl+           1.892e-08   1.641e-08    -7.723    -7.785    -0.062     (0)  
   KCl             6.017e-11   6.017e-11   -10.221   -10.221     0.000     (0)  
   CaCl2           1.520e-12   1.520e-12   -11.818   -11.818     0.000     (0)  
   MgCl+           5.341e-13   4.633e-13   -12.272   -12.334    -0.062     (0)  
   Zn(OH)Cl        1.112e-13   1.112e-13   -12.954   -12.954     0.000     (0)  
   MnCl+           3.632e-14   3.150e-14   -13.440   -13.502    -0.062     (0)  
   HCl             1.864e-17   1.864e-17   -16.730   -16.730     0.000     (0)  
   ZnCl+           8.139e-18   7.059e-18   -17.089   -17.151    -0.062     (0)  
   CuCl+           9.473e-19   8.217e-19   -18.024   -18.085    -0.062     (0)  
   CuCl2-          1.016e-19   8.810e-20   -18.993   -19.055    -0.062     (0)  
   ZnCl2           6.470e-22   6.470e-22   -21.189   -21.189     0.000     (0)  
   CuCl3-2         7.967e-23   4.481e-23   -22.099   -22.349    -0.250     (0)  
   MnCl3-          4.902e-23   4.252e-23   -22.310   -22.371    -0.062     (0)  
   CuCl2           3.427e-23   3.427e-23   -22.465   -22.465     0.000     (0)  
   ZnCl3-          3.216e-26   2.789e-26   -25.493   -25.555    -0.062     (0)  
   CrO3Cl-         1.088e-27   9.439e-28   -26.963   -27.025    -0.062     (0)  
   ZnCl4-2         2.957e-29   1.663e-29   -28.529   -28.779    -0.250     (0)  
   FeCl+           1.606e-31   1.393e-31   -30.794   -30.856    -0.062     (0)  
   CuCl4-2         7.173e-36   4.035e-36   -35.144   -35.394    -0.250     (0)  
   FeCl2           5.938e-38   5.938e-38   -37.226   -37.226     0.000     (0)  
   FeCl+2          0.000e+00   0.000e+00   -40.250   -40.495    -0.245     (0)  
   FeCl2+          0.000e+00   0.000e+00   -41.639   -41.701    -0.062     (0)  
   FeCl4-2         0.000e+00   0.000e+00   -44.717   -44.967    -0.250     (0)  
   CrCl+2          0.000e+00   0.000e+00   -45.631   -45.876    -0.245     (0)  
   CrCl2+          0.000e+00   0.000e+00   -49.558   -49.620    -0.062     (0)  
   FeCl4-          0.000e+00   0.000e+00   -52.762   -52.824    -0.062     (0)  
Cl(1)         8.309e-31
   ClO-            8.308e-31   7.206e-31   -30.080   -30.142    -0.062     (0)  
   HClO            2.798e-35   2.798e-35   -34.553   -34.553     0.000     (0)  
Cl(3)         0.000e+00
   ClO2-           0.000e+00   0.000e+00   -49.023   -49.084    -0.062     (0)  
   HClO2           0.000e+00   0.000e+00   -57.895   -57.895     0.000     (0)  
Cl(5)         0.000e+00
   ClO3-           0.000e+00   0.000e+00   -54.139   -54.202    -0.063     (0)  
Cl(7)         0.000e+00
   ClO4-           0.000e+00   0.000e+00   -63.554   -63.617    -0.063     (0)  
   ZnClO4+         0.000e+00   0.000e+00   -75.569   -75.631    -0.062     (0)  
Cr(2)         0.000e+00
   Cr+2            0.000e+00   0.000e+00   -53.859   -54.104    -0.245     (0)  
Cr(3)         9.038e-22
   Cr(OH)4-        9.017e-22   7.821e-22   -21.045   -21.107    -0.062     (0)  
   Cr(OH)3         2.058e-24   2.058e-24   -23.686   -23.686     0.000     (0)  
   Cr(OH)2+        4.962e-28   4.303e-28   -27.304   -27.366    -0.062     (0)  
   CrOH+2          3.972e-34   2.260e-34   -33.401   -33.646    -0.245     (0)  
   Cr+3            0.000e+00   0.000e+00   -41.157   -41.626    -0.469     (0)  
   CrCl+2          0.000e+00   0.000e+00   -45.631   -45.876    -0.245     (0)  
   CrCl2+          0.000e+00   0.000e+00   -49.558   -49.620    -0.062     (0)  
   Cr2(OH)2+4      0.000e+00   0.000e+00   -63.407   -64.352    -0.945     (0)  
   Cr3(OH)4+5      0.000e+00   0.000e+00   -83.659   -85.108    -1.449     (0)  
Cr(5)         4.922e-09
   CrO4-3          4.922e-09   1.345e-09    -8.308    -8.871    -0.563     (0)  
Cr(6)         4.934e-07
   CrO4-2          4.934e-07   2.775e-07    -6.307    -6.557    -0.250     (0)  
   HCrO4-          1.117e-12   9.689e-13   -11.952   -12.014    -0.062     (0)  
   Cr2O7-2         5.487e-23   3.087e-23   -22.261   -22.511    -0.250     (0)  
   H2CrO4          4.788e-26   4.788e-26   -25.320   -25.320     0.000     (0)  
   CrO3Cl-         1.088e-27   9.439e-28   -26.963   -27.025    -0.062     (0)  
Cu(1)         2.445e-16
   Cu+             2.444e-16   2.120e-16   -15.612   -15.674    -0.062     (0)  
   CuCl2-          1.016e-19   8.810e-20   -18.993   -19.055    -0.062     (0)  
   CuCl3-2         7.967e-23   4.481e-23   -22.099   -22.349    -0.250     (0)  
Cu(2)         1.989e-06
   CuO2-2          1.989e-06   1.119e-06    -5.701    -5.951    -0.250     (0)  
   CuOH+           2.153e-10   1.867e-10    -9.667    -9.729    -0.062     (0)  
   Cu+2            6.458e-15   3.793e-15   -14.190   -14.421    -0.231     (0)  
   CuF+            3.679e-18   3.191e-18   -17.434   -17.496    -0.062     (0)  
   CuCl+           9.473e-19   8.217e-19   -18.024   -18.085    -0.062     (0)  
   CuCl2           3.427e-23   3.427e-23   -22.465   -22.465     0.000     (0)  
   CuCl4-2         7.173e-36   4.035e-36   -35.144   -35.394    -0.250     (0)  
F             6.194e-05
   F-              6.138e-05   5.308e-05    -4.212    -4.275    -0.063     (0)  
   CaF+            3.050e-07   2.645e-07    -6.516    -6.578    -0.062     (0)  
   AsO3F-2         1.591e-07   8.948e-08    -6.798    -7.048    -0.250     (0)  
   NaF             9.610e-08   9.610e-08    -7.017    -7.017     0.000     (0)  
   MgF+            1.109e-11   9.620e-12   -10.955   -11.017    -0.062     (0)  
   MnF+            3.030e-13   2.628e-13   -12.519   -12.580    -0.062     (0)  
   HF              8.633e-14   8.633e-14   -13.064   -13.064     0.000     (0)  
   HAsO3F-         8.021e-14   6.957e-14   -13.096   -13.158    -0.062     (0)  
   ZnF+            4.426e-17   3.839e-17   -16.354   -16.416    -0.062     (0)  
   CuF+            3.679e-18   3.191e-18   -17.434   -17.496    -0.062     (0)  
   HF2-            1.287e-18   1.116e-18   -17.890   -17.952    -0.062     (0)  
   AlF2+           4.474e-24   3.881e-24   -23.349   -23.411    -0.062     (0)  
   AlF3            2.593e-24   2.593e-24   -23.586   -23.586     0.000     (0)  
   AlF+2           3.228e-25   1.836e-25   -24.491   -24.736    -0.245     (0)  
   AlF4-           3.986e-26   3.458e-26   -25.399   -25.461    -0.062     (0)  
   H2F2            1.811e-26   1.811e-26   -25.742   -25.742     0.000     (0)  
   VO2F            1.051e-28   1.051e-28   -27.979   -27.979     0.000     (0)  
   FeF+            3.374e-30   2.927e-30   -29.472   -29.534    -0.062     (0)  
   VO2F2-          1.854e-30   1.608e-30   -29.732   -29.794    -0.062     (0)  
   FeF+2           3.330e-36   1.894e-36   -35.478   -35.723    -0.245     (0)  
   FeF2+           1.892e-36   1.641e-36   -35.723   -35.785    -0.062     (0)  
   VOF+            4.486e-39   3.891e-39   -38.348   -38.410    -0.062     (0)  
   VOF2            1.245e-40   1.245e-40   -39.905   -39.905     0.000     (0)  
   SiF6-2          0.000e+00   0.000e+00   -54.777   -55.027    -0.250     (0)  
Fe(2)         2.479e-22
   Fe(OH)3-        2.412e-22   2.092e-22   -21.618   -21.679    -0.062     (0)  
   Fe(OH)2         5.506e-24   5.506e-24   -23.259   -23.259     0.000     (0)  
   FeOH+           8.375e-25   7.264e-25   -24.077   -24.139    -0.062     (0)  
   Fe(OH)4-2       3.550e-25   1.997e-25   -24.450   -24.700    -0.250     (0)  
   Fe+2            4.098e-27   2.407e-27   -26.387   -26.619    -0.231     (0)  
   FeF+            3.374e-30   2.927e-30   -29.472   -29.534    -0.062     (0)  
   FeCl+           1.606e-31   1.393e-31   -30.794   -30.856    -0.062     (0)  
   FeCl2           5.938e-38   5.938e-38   -37.226   -37.226     0.000     (0)  
   FeCl4-2         0.000e+00   0.000e+00   -44.717   -44.967    -0.250     (0)  
Fe(3)         5.669e-10
   Fe(OH)4-        5.649e-10   4.899e-10    -9.248    -9.310    -0.062     (0)  
   Fe(OH)3         2.044e-12   2.044e-12   -11.690   -11.690     0.000     (0)  
   Fe(OH)2+        5.279e-18   4.578e-18   -17.277   -17.339    -0.062     (0)  
   FeOH+2          2.546e-26   1.449e-26   -25.594   -25.839    -0.245     (0)  
   Fe+3            6.918e-36   2.351e-36   -35.160   -35.629    -0.469     (0)  
   FeF+2           3.330e-36   1.894e-36   -35.478   -35.723    -0.245     (0)  
   FeF2+           1.892e-36   1.641e-36   -35.723   -35.785    -0.062     (0)  
   FeNO3+2         1.811e-39   1.030e-39   -38.742   -38.987    -0.245     (0)  
   FeCl+2          0.000e+00   0.000e+00   -40.250   -40.495    -0.245     (0)  
   FeCl2+          0.000e+00   0.000e+00   -41.639   -41.701    -0.062     (0)  
   Fe2(OH)2+4      0.000e+00   0.000e+00   -49.303   -50.248    -0.945     (0)  
   FeCl4-          0.000e+00   0.000e+00   -52.762   -52.824    -0.062     (0)  
   Fe3(OH)4+5      0.000e+00   0.000e+00   -63.818   -65.267    -1.449     (0)  
Ga            2.659e-06
   Ga+3            2.659e-06   7.644e-07    -5.575    -6.117    -0.541     (0)  
H(0)          1.781e-35
   H2              8.906e-36   8.952e-36   -35.050   -35.048     0.002     (0)  
K             2.600e-05
   K+              2.593e-05   2.235e-05    -4.586    -4.651    -0.064     (0)  
   KOH             7.397e-08   7.397e-08    -7.131    -7.131     0.000     (0)  
   KCl             6.017e-11   6.017e-11   -10.221   -10.221     0.000     (0)  
Mg            1.231e-08
   Mg+2            1.229e-08   7.492e-09    -7.910    -8.125    -0.215     (0)  
   MgF+            1.109e-11   9.620e-12   -10.955   -11.017    -0.062     (0)  
   MgCl+           5.341e-13   4.633e-13   -12.272   -12.334    -0.062     (0)  
   Mg4(OH)4+4      4.096e-24   4.649e-25   -23.388   -24.333    -0.945     (0)  
Mn(2)         1.125e-07
   Mn2(OH)3+       4.270e-08   3.704e-08    -7.370    -7.431    -0.062     (0)  
   Mn(OH)3-        1.091e-08   9.465e-09    -7.962    -8.024    -0.062     (0)  
   Mn(OH)2         1.057e-08   1.057e-08    -7.976    -7.976     0.000     (0)  
   MnOH+           5.203e-09   4.513e-09    -8.284    -8.346    -0.062     (0)  
   Mn+2            3.133e-10   1.840e-10    -9.504    -9.735    -0.231     (0)  
   Mn(OH)4-2       1.360e-10   7.650e-11    -9.866   -10.116    -0.250     (0)  
   MnF+            3.030e-13   2.628e-13   -12.519   -12.580    -0.062     (0)  
   MnCl+           3.632e-14   3.150e-14   -13.440   -13.502    -0.062     (0)  
   MnNO3+          1.473e-14   1.278e-14   -13.832   -13.894    -0.062     (0)  
   Mn2OH+3         3.095e-18   8.896e-19   -17.509   -18.051    -0.541     (0)  
   Mn(NO3)2        1.406e-18   1.406e-18   -17.852   -17.852     0.000     (0)  
   MnCl3-          4.902e-23   4.252e-23   -22.310   -22.371    -0.062     (0)  
Mn(3)         1.785e-31
   Mn+3            1.785e-31   5.131e-32   -30.748   -31.290    -0.541     (0)  
Mn(6)         1.344e-16
   MnO4-2          1.344e-16   7.562e-17   -15.871   -16.121    -0.250     (0)  
Mn(7)         4.154e-22
   MnO4-           4.154e-22   3.593e-22   -21.381   -21.445    -0.063     (0)  
N(5)          5.107e-05
   NO3-            5.083e-05   4.382e-05    -4.294    -4.358    -0.064     (0)  
   CaNO3+          2.470e-07   2.142e-07    -6.607    -6.669    -0.062     (0)  
   MnNO3+          1.473e-14   1.278e-14   -13.832   -13.894    -0.062     (0)  
   HNO3            2.434e-18   2.434e-18   -17.614   -17.614     0.000     (0)  
   Mn(NO3)2        1.406e-18   1.406e-18   -17.852   -17.852     0.000     (0)  
   FeNO3+2         1.811e-39   1.030e-39   -38.742   -38.987    -0.245     (0)  
Na            1.944e-02
   Na+             1.940e-02   1.682e-02    -1.712    -1.774    -0.062     (0)  
   NaOH            2.788e-05   2.788e-05    -4.555    -4.555     0.000     (0)  
   NaAlO2          1.396e-05   1.396e-05    -4.855    -4.855     0.000     (0)  
   NaHSiO3         1.321e-06   1.321e-06    -5.879    -5.879     0.000     (0)  
   NaCl            2.352e-07   2.352e-07    -6.629    -6.629     0.000     (0)  
   NaF             9.610e-08   9.610e-08    -7.017    -7.017     0.000     (0)  
O(0)          2.469e-22
   O2              1.235e-22   1.241e-22   -21.908   -21.906     0.002     (0)  
Si            3.548e-06
   HSiO3-          1.943e-06   1.685e-06    -5.711    -5.773    -0.062     (0)  
   NaHSiO3         1.321e-06   1.321e-06    -5.879    -5.879     0.000     (0)  
   H2SiO4-2        2.690e-07   1.513e-07    -6.570    -6.820    -0.250     (0)  
   SiO2            1.515e-08   1.515e-08    -7.820    -7.820     0.000     (0)  
   H4(H2SiO4)4-4   5.027e-19   5.003e-20   -18.299   -19.301    -1.002     (0)  
   H6(H2SiO4)4-2   1.946e-21   1.094e-21   -20.711   -20.961    -0.250     (0)  
   SiF6-2          0.000e+00   0.000e+00   -54.777   -55.027    -0.250     (0)  
V(3)          0.000e+00
   V(OH)2+         0.000e+00   0.000e+00   -42.211   -42.273    -0.062     (0)  
   VOH+2           0.000e+00   0.000e+00   -50.348   -50.593    -0.245     (0)  
   V+3             0.000e+00   0.000e+00   -59.771   -60.313    -0.541     (0)  
   V2(OH)2+4       0.000e+00   0.000e+00   -99.521  -100.466    -0.945     (0)  
V(4)          1.725e-32
   VOOH+           1.725e-32   1.496e-32   -31.763   -31.825    -0.062     (0)  
   VO+2            1.288e-38   7.330e-39   -37.890   -38.135    -0.245     (0)  
   VOF+            4.486e-39   3.891e-39   -38.348   -38.410    -0.062     (0)  
   VOF2            1.245e-40   1.245e-40   -39.905   -39.905     0.000     (0)  
   (VO)2(OH)2+2    0.000e+00   0.000e+00   -58.735   -58.980    -0.245     (0)  
V(5)          9.902e-06
   VO3OH-2         8.877e-06   4.994e-06    -5.052    -5.302    -0.250     (0)  
   HVO4-2          9.288e-07   5.225e-07    -6.032    -6.282    -0.250     (0)  
   VO4-3           9.588e-08   2.621e-08    -7.018    -7.582    -0.563     (0)  
   H2VO4-          7.568e-11   6.564e-11   -10.121   -10.183    -0.062     (0)  
   VO2(OH)2-       4.653e-11   4.036e-11   -10.332   -10.394    -0.062     (0)  
   VO(OH)3         4.226e-19   4.226e-19   -18.374   -18.374     0.000     (0)  
   VO2+            1.019e-27   8.840e-28   -26.992   -27.054    -0.062     (0)  
   VO2F            1.051e-28   1.051e-28   -27.979   -27.979     0.000     (0)  
   VO2F2-          1.854e-30   1.608e-30   -29.732   -29.794    -0.062     (0)  
Zn            1.154e-06
   Zn(OH)3-        7.470e-07   6.479e-07    -6.127    -6.188    -0.062     (0)  
   Zn(OH)2         2.190e-07   2.190e-07    -6.659    -6.659     0.000     (0)  
   Zn(OH)4-2       1.874e-07   1.054e-07    -6.727    -6.977    -0.250     (0)  
   ZnOH+           6.465e-11   5.607e-11   -10.189   -10.251    -0.062     (0)  
   Zn(OH)Cl        1.112e-13   1.112e-13   -12.954   -12.954     0.000     (0)  
   Zn+2            8.718e-14   5.120e-14   -13.060   -13.291    -0.231     (0)  
   ZnF+            4.426e-17   3.839e-17   -16.354   -16.416    -0.062     (0)  
   ZnCl+           8.139e-18   7.059e-18   -17.089   -17.151    -0.062     (0)  
   ZnCl2           6.470e-22   6.470e-22   -21.189   -21.189     0.000     (0)  
   ZnCl3-          3.216e-26   2.789e-26   -25.493   -25.555    -0.062     (0)  
   ZnCl4-2         2.957e-29   1.663e-29   -28.529   -28.779    -0.250     (0)  
   ZnClO4+         0.000e+00   0.000e+00   -75.569   -75.631    -0.062     (0)  

------------------------------Saturation indices-------------------------------

  Phase               SI** log IAP   log K(298 K,   1 atm)

  Afwillite       -12.64     47.21   59.85  Ca3Si2O4(OH)6
  Akermanite       -3.04     42.09   45.13  Ca2MgSi2O7
  Al             -124.67     24.91  149.58  Al
  Al(g)          -175.26     24.91  200.17  Al
  Albite           -7.41     -4.77    2.64  NaAlSi3O8
  Albite_high      -8.73     -4.77    3.95  NaAlSi3O8
  Albite_low       -7.41     -4.77    2.64  NaAlSi3O8
  AlF3            -23.01    -40.29  -17.28  AlF3
  Amesite-14A       6.62     81.61   74.99  Mg4Al4Si2O10(OH)8
  Analcime         -4.05      1.98    6.03  Na.96Al.96Si2.04O6:H2O
  Analcime-dehy   -10.40      1.98   12.38  Na.96Al.96Si2.04O6
  Andalusite       -6.66      9.14   15.80  Al2SiO5
  Andradite         6.93     40.01   33.08  Ca3Fe2(SiO4)3
  Annite          -44.87    -15.63   29.24  KFe3AlSi3O10(OH)2
  Anorthite        -4.10     22.27   26.37  CaAl2(SiO4)2
  Antarcticite    -15.31    -11.21    4.09  CaCl2:6H2O
  Anthophyllite   -18.03     48.28   66.31  Mg7Si8O22(OH)2
  Antigorite       19.72    494.17  474.45  Mg48Si34O85(OH)62
  Arsenolite     -129.21   -149.02  -19.81  As2O3
  As             -100.67    -58.08   42.59  As
  As2O5          -112.12   -110.00    2.12  As2O5
  As4O6(cubi)    -258.28   -298.04  -39.76  As4O6
  As4O6(mono)    -258.05   -298.04  -39.99  As4O6
  Atacamite        -8.23      5.99   14.22  Cu4Cl2(OH)6
  Beidellite-Ca   -10.87     -5.49    5.39  Ca.165Al2.33Si3.67O10(OH)2
  Beidellite-H    -13.38     -8.94    4.44  H.33Al2.33Si3.67O10(OH)2
  Beidellite-K    -11.63     -6.52    5.11  K.33Al2.33Si3.67O10(OH)2
  Beidellite-Mg   -11.68     -6.33    5.35  Mg.165Al2.33Si3.67O10(OH)2
  Beidellite-Na   -11.02     -5.58    5.45  Na.33Al2.33Si3.67O10(OH)2
  Birnessite       36.42    -49.12  -85.55  Mn8O14:5H2O
  Bischofite      -20.72    -16.33    4.39  MgCl2:6H2O
  Bixbyite         10.33      9.30   -1.03  Mn2O3
  Boehmite          0.97      8.48    7.51  AlO2H
  Brucite          -0.41     15.83   16.24  Mg(OH)2
  Ca             -107.64     31.90  139.54  Ca
  Ca(g)          -132.82     31.90  164.72  Ca
  Ca-Al_Pyroxene   -5.69     30.09   35.78  CaAl2SiO6
  Ca2Al2O5:8H2O    -0.72     58.85   59.57  Ca2Al2O5:8H2O
  Ca2Cl2(OH)2:H2O -16.55      9.74   26.29  Ca2Cl2(OH)2:H2O
  Ca2V2O7          -5.43    -45.14  -39.71  Ca2V2O7
  Ca3(AsO4)2      -64.90    -47.15   17.75  Ca3(AsO4)2
  Ca3Al2O6        -32.93     79.80  112.74  Ca3Al2O6
  Ca3V2O8          -5.87    -24.20  -18.32  Ca3V2O8
  Ca4Al2Fe2O10    -38.71    101.37  140.08  Ca4Al2Fe2O10
  Ca4Al2O7:13H2O   -6.50    100.75  107.25  Ca4Al2O7:13H2O
  Ca4Al2O7:19H2O   -2.93    100.75  103.68  Ca4Al2O7:19H2O
  Ca4Cl2(OH)6:13H2O -16.70     51.63   68.33  Ca4Cl2(OH)6:13H2O
  CaAl2O4          -8.85     37.91   46.75  CaAl2O4
  CaAl2O4:10H2O    -0.09     37.90   37.99  CaAl2O4:10H2O
  CaAl4O7         -13.48     54.86   68.34  CaAl4O7
  Carnallite      -29.35    -25.08    4.27  KMgCl3:6H2O
  CaV2O6          -14.73    -66.09  -51.36  CaV2O6
  Celadonite       -6.92      0.36    7.28  KMgAlSi4O10(OH)2
  Chalcedony       -4.07     -7.82   -3.75  SiO2
  Chamosite-7A    -28.81      3.82   32.63  Fe2Al2SiO5(OH)4
  Chloromagnesite -38.09    -16.33   21.76  MgCl2
  Chromite        -29.10    -14.03   15.07  FeCr2O4
  Chrysocolla      -4.50      1.72    6.21  CuSiH4O5
  Chrysotile        0.91     31.86   30.95  Mg3Si2O5(OH)4
  Cl2(g)          -46.09    -43.12    2.98  Cl2
  Claudetite     -129.26   -149.02  -19.77  As2O3
  Clinochlore-14A   5.83     72.67   66.84  Mg5Al2Si3O10(OH)8
  Clinochlore-7A    2.46     72.67   70.20  Mg5Al2Si3O10(OH)8
  Clinoptilolite-Ca -40.54    -48.07   -7.54  Ca1.7335Al3.45Fe.017Si14.533O36:10.922H2O
  Clinoptilolite-dehy-Ca -76.10    -48.07   28.03  Ca1.7335Al3.45Fe.017Si14.533O36
  Clinoptilolite-dehy-K -83.12    -58.98   24.14  K3.467Al3.45Fe.017Si14.533O36
  Clinoptilolite-dehy-Na -76.92    -49.00   27.92  Na3.467Al3.45Fe.017Si14.533O36
  Clinoptilolite-hy-Ca -40.54    -48.07   -7.54  Ca1.7335Al3.45Fe.017Si14.533O36:11.645H2O
  Clinoptilolite-hy-K -47.54    -58.98  -11.44  K3.467Al3.45Fe.017Si14.533O36:7.499H2O
  Clinoptilolite-hy-Na -41.36    -49.01   -7.64  Na3.467Al3.45Fe.017Si14.533O36:10.877H2O
  Clinoptilolite-K -47.56    -58.98  -11.42  K3.467Al3.45Fe.017Si14.533O36:10.922H2O
  Clinoptilolite-Na -41.36    -49.01   -7.64  Na3.467Al3.45Fe.017Si14.533O36:10.922H2O
  Clinozoisite      0.94     43.87   42.94  Ca2Al3Si3O12(OH)
  Coesite          -4.61     -7.82   -3.21  SiO2
  Cordierite_anhyd -25.37     26.48   51.85  Mg2Al4Si5O18
  Cordierite_hydr -22.89     26.48   49.37  Mg2Al4Si5O18:H2O
  Corundum         -1.24     16.96   18.20  Al2O3
  Cr              -87.69     10.74   98.44  Cr
  CrCl3           -71.79    -53.93   17.86  CrCl3
  CrF3            -45.78    -54.45   -8.67  CrF3
  CrF4            -83.00    -95.35  -12.35  CrF4
  Cristobalite(alpha)  -4.35     -7.82   -3.47  SiO2
  Cristobalite(beta)  -4.79     -7.82   -3.02  SiO2
  CrO2            -11.22    -30.33  -19.11  CrO2
  CrO3            -26.96    -30.52   -3.56  CrO3
  Cronstedtite-7A -28.61    -12.52   16.09  Fe2Fe2SiO5(OH)4
  Cu              -10.93     20.49   31.42  Cu
  Cu(g)           -62.97     20.49   83.46  Cu
  CuCl2           -26.33    -22.62    3.70  CuCl2
  CuCr2O4         -17.96     -1.83   16.13  CuCr2O4
  CuF             -27.03    -19.95    7.08  CuF
  CuF2            -22.35    -22.97   -0.62  CuF2
  CuF2:2H2O       -18.42    -22.97   -4.55  CuF2:2H2O
  Cuprite          -5.49     -7.39   -1.90  Cu2O
  Daphnite-14A    -71.71    -19.80   51.92  Fe5AlAlSi3O10(OH)8
  Daphnite-7A     -75.09    -19.80   55.29  Fe5AlAlSi3O10(OH)8
  Delafossite       3.06     -3.38   -6.44  CuFeO2
  Diaspore          1.37      8.48    7.11  AlHO2
  Dicalcium_silicate  -2.97     34.08   37.05  Ca2SiO4
  Diopside          0.31     21.14   20.84  CaMgSi2O6
  Dioptase         -4.33      1.72    6.05  CuSiO2(OH)2
  Enstatite        -3.24      8.01   11.26  MgSiO3
  Epidote           3.07     35.71   32.64  Ca2FeAl2Si3O12OH
  Epidote-ord       3.08     35.71   32.63  FeCa2Al2(OH)(SiO4)3
  Eskolaite       -18.94    -28.17   -9.23  Cr2O3
  F2(g)           -99.04    -43.46   55.57  F2
  Fayalite        -32.14    -13.14   19.01  Fe2SiO4
  Fe              -50.59      8.29   58.89  Fe
  Fe(OH)2         -16.52     -2.66   13.86  Fe(OH)2
  Fe(OH)3          -5.30      0.31    5.61  Fe(OH)3
  FeF2            -32.73    -35.17   -2.44  FeF2
  FeF3            -29.19    -48.45  -19.26  FeF3
  FeO             -16.14     -2.66   13.49  FeO
  Ferrite-Ca        0.17     21.57   21.40  CaFe2O4
  Ferrite-Cu       -0.05     10.16   10.21  CuFe2O4
  Ferrite-Dicalcium -14.11     42.52   56.63  Ca2Fe2O5
  Ferrite-Mg       -4.47     16.46   20.92  MgFe2O4
  Ferrite-Zn       -0.33     11.29   11.62  ZnFe2O4
  Ferrosilite     -17.87    -10.48    7.39  FeSiO3
  FeV2O4         -331.36    -51.41  279.95  FeV2O4
  Fluorite         -1.50    -11.56  -10.06  CaF2
  Forsterite       -3.89     23.85   27.74  Mg2SiO4
  Foshagite        -5.34     60.34   65.67  Ca4Si3O9(OH)2:0.5H2O
  Ga              -45.86     46.25   92.11  Ga
  Gehlenite        -5.01     51.04   56.05  Ca2Al2SiO7
  Gibbsite          0.77      8.48    7.70  Al(OH)3
  Gismondine        2.81     44.53   41.72  Ca2Al4Si4O16:9H2O
  Goethite         -0.20      0.31    0.51  FeOOH
  Greenalite      -46.14    -23.62   22.52  Fe3Si2O5(OH)4
  Grossular         4.72     56.35   51.62  Ca3Al2(SiO4)3
  Gyrolite         -4.34     18.44   22.77  Ca2Si3O7(OH)2:1.5H2O
  H2(g)           -31.95    -35.05   -3.10  H2
  H2O(g)           -1.57     -0.00    1.57  H2O
  Halite           -7.44     -5.88    1.56  NaCl
  Hatrurite       -18.17     55.03   73.20  Ca3SiO5
  Hausmannite      13.47     23.52   10.05  Mn3O4
  HCl(g)          -22.36    -16.08    6.28  HCl
  Hedenbergite    -16.83      2.65   19.49  CaFe(SiO3)2
  Hematite          0.59      0.62    0.03  Fe2O3
  Hercynite       -14.38     14.30   28.68  FeAl2O4
  Hillebrandite    -2.62     34.08   36.70  Ca2SiO3(OH)2:0.17H2O
  Hydrophilite    -22.93    -11.21   11.72  CaCl2
  Ice              -0.14     -0.00    0.14  H2O
  Illite           -8.33      0.49    8.82  K0.6Mg0.25Al1.8Al0.5Si3.5O10(OH)2
  Jadeite          -5.24      3.05    8.28  NaAl(SiO3)2
  K               -58.03     12.81   70.84  K
  K(g)            -68.60     12.81   81.41  K
  K-Feldspar       -7.26     -7.65   -0.39  KAlSi3O8
  K2O             -69.23     14.66   83.89  K2O
  Kalsilite        -2.82      7.99   10.81  KAlSiO4
  Kaolinite        -5.35      1.32    6.66  Al2Si2O5(OH)4
  Karelianite     -58.64    -48.75    9.89  V2O3
  Katoite           0.86     79.80   78.94  Ca3Al2H12O12
  KMgCl3          -46.28    -25.08   21.20  KMgCl3
  KMgCl3:2H2O     -39.02    -25.08   13.93  KMgCl3:2H2O
  Kyanite          -6.39      9.14   15.53  Al2SiO5
  Lammerite       -82.93    -81.38    1.55  Cu3(AsO4)2
  Larnite          -4.26     34.08   38.34  Ca2SiO4
  Laumontite       -6.82      6.63   13.45  CaAl2Si4O12:4H2O
  Lawrencite      -43.85    -34.82    9.02  FeCl2
  Lawsonite         0.25     22.27   22.02  CaAl2Si2O7(OH)2:H2O
  Lime            -11.55     20.95   32.50  CaO
  Lopezite        -28.95    -46.37  -17.43  K2Cr2O7
  Magnesiochromite -17.12      4.46   21.59  MgCr2O4
  Magnetite       -12.38     -2.04   10.34  Fe3O4
  Manganite         4.81      4.65   -0.16  MnO(OH)
  Manganosite      -3.65     14.22   17.87  MnO
  Margarite        -1.52     39.22   40.74  CaAl4Si2O10(OH)2
  Maximum_Microcline  -7.26     -7.65   -0.39  KAlSi3O8
  Mayenite       -122.64    370.09  492.73  Ca12Al14O33
  Merwinite        -5.22     63.04   68.26  MgCa3(SiO4)2
  Mesolite          0.57     14.00   13.43  Na.676Ca.657Al1.99Si3.01O10:2.647H2O
  Mg              -95.47     26.79  122.26  Mg
  Mg(g)          -115.14     26.79  141.93  Mg
  Mg2V2O7         -24.47    -55.37  -30.90  Mg2V2O7
  MgCl2:2H2O      -29.03    -16.33   12.70  MgCl2:2H2O
  MgCl2:4H2O      -23.61    -16.33    7.29  MgCl2:4H2O
  MgCl2:H2O       -32.36    -16.33   16.03  MgCl2:H2O
  MgOHCl          -16.10     -0.25   15.85  MgOHCl
  MgV2O6          -25.36    -71.21  -45.85  MgV2O6
  Minnesotaite    -53.05    -39.26   13.80  Fe3Si4O10(OH)2
  Mn              -57.58     25.18   82.76  Mn
  Mn(OH)2(am)      -1.05     14.22   15.27  Mn(OH)2
  Mn(OH)3          -1.69      4.65    6.34  Mn(OH)3
  MnCl2:2H2O      -21.92    -17.94    3.99  MnCl2:2H2O
  MnCl2:4H2O      -20.69    -17.94    2.75  MnCl2:4H2O
  MnCl2:H2O       -23.46    -17.94    5.52  MnCl2:H2O
  MnO2(gamma)       3.20    -12.93  -16.13  MnO2
  MnV2O6          -20.74    -72.82  -52.08  MnV2O6
  Molysite        -61.35    -47.93   13.42  FeCl3
  Monticellite     -0.50     28.96   29.46  CaMgSiO4
  Montmor-Ca      -10.75     -8.44    2.31  Ca.165Mg.33Al1.67Si4O10(OH)2
  Montmor-K       -11.43     -9.48    1.96  K.33Mg.33Al1.67Si4O10(OH)2
  Montmor-Mg      -11.48     -9.28    2.20  Mg.495Al1.67Si4O10(OH)2
  Montmor-Na      -10.82     -8.53    2.30  Na.33Mg.33Al1.67Si4O10(OH)2
  Mordenite       -16.49    -21.85   -5.36  Ca.2895Na.361Al.94Si5.06O12:3.468H2O
  Mordenite-dehy  -31.58    -21.85    9.74  Ca.2895Na.361Al.94Si5.06O12
  Muscovite        -4.06      9.31   13.36  KAl3Si3O10(OH)2
  Na              -51.55     15.68   67.24  Na
  Na(g)           -65.01     15.68   80.69  Na
  Na2Cr2O7        -30.45    -40.62  -10.17  Na2Cr2O7
  Na2CrO4         -13.00    -10.10    2.89  Na2CrO4
  Na2O            -46.88     20.41   67.29  Na2O
  Na2SiO3          -9.58     12.59   22.17  Na2SiO3
  Na4SiO4         -37.48     33.00   70.48  Na4SiO4
  Na6Si2O7        -55.77     45.60  101.36  Na6Si2O7
  NaFeO2           -9.31     10.52   19.83  NaFeO2
  Nantokite       -13.02    -19.77   -6.75  CuCl
  Natrolite        -4.42     13.91   18.33  Na2Al2Si3O10:2H2O
  Natrosilite     -13.28      4.77   18.05  Na2Si2O5
  Nepheline        -2.84     10.86   13.70  NaAlSiO4
  Niter            -8.80     -9.01   -0.21  KNO3
  NO2(g)          -19.18    -10.86    8.32  NO2
  Nontronite-Ca   -10.08    -21.82  -11.74  Ca.165Fe2Al.33Si3.67H2O12
  Nontronite-H    -12.58    -25.28  -12.70  H.33Fe2Al.33Si3.67H2O12
  Nontronite-K    -10.84    -22.86  -12.02  K.33Fe2Al.33Si3.67H2O12
  Nontronite-Mg   -10.88    -22.67  -11.78  Mg.165Fe2Al.33Si3.67H2O12
  Nontronite-Na   -10.23    -21.91  -11.69  Na.33Fe2Al.33Si3.67H2O12
  O2(g)           -19.01    -21.91   -2.90  O2
  Okenite          -5.00      5.31   10.31  CaSi2O4(OH)2:H2O
  Oxychloride-Mg  -10.25     15.59   25.83  Mg2Cl(OH)3:4H2O
  Paragonite       -5.10     12.18   17.28  NaAl3Si3O10(OH)2
  Pargasite        -7.43     93.96  101.39  NaCa2Al3Mg4Si6O22(OH)2
  Periclase        -5.44     15.83   21.27  MgO
  Phlogopite        2.66     39.85   37.19  KAlMg3Si3O10(OH)2
  Portlandite      -1.55     20.95   22.50  Ca(OH)2
  Prehnite          2.71     35.40   32.68  Ca2Al2Si3O10(OH)2
  Pseudowollastonite  -0.80     13.13   13.93  CaSiO3
  Pyrolusite        4.70    -12.93  -17.63  MnO2
  Pyrophyllite    -14.58    -14.32    0.25  Al2Si4O10(OH)2
  Quartz           -3.80     -7.82   -4.02  SiO2
  Rankinite        -4.51     47.21   51.72  Ca3Si2O7
  Rhodonite        -3.26      6.40    9.67  MnSiO3
  Ripidolite-14A  -24.89     35.68   60.58  Mg3Fe2Al2Si3O10(OH)8
  Ripidolite-7A   -28.27     35.68   63.95  Mg3Fe2Al2Si3O10(OH)8
  Sanidine_high    -8.46     -7.65    0.81  KAlSi3O8
  Saponite-Ca      -1.01     25.06   26.07  Ca.165Mg3Al.33Si3.67O10(OH)2
  Saponite-H       -3.51     21.60   25.11  H.33Mg3Al.33Si3.67O10(OH)2
  Saponite-K       -1.77     24.02   25.79  K.33Mg3Al.33Si3.67O10(OH)2
  Saponite-Mg      -1.81     24.22   26.03  Mg3.165Al.33Si3.67O10(OH)2
  Saponite-Na      -1.15     24.97   26.12  Na.33Mg3Al.33Si3.67O10(OH)2
  Scacchite       -26.65    -17.94    8.71  MnCl2
  Scolecite        -1.23     14.45   15.67  CaAl2Si3O10:3H2O
  Sellaite         -7.23    -16.68   -9.45  MgF2
  Sepiolite       -13.75     16.42   30.17  Mg4Si6O15(OH)2:6H2O
  Shcherbinaite   -28.68    -30.15   -1.46  V2O5
  Si             -134.47     14.09  148.56  Si
  Si(g)          -205.39     14.09  219.48  Si
  SiF4(g)         -57.59    -72.84  -15.25  SiF4
  Sillimanite      -7.02      9.14   16.16  Al2SiO5
  SiO2(am)         -5.08     -7.82   -2.74  SiO2
  Smectite-high-Fe-Mg -14.02      3.18   17.20  Ca.025Na.1K.2Fe.5Fe.2Mg1.15Al1.25Si3.5H2O12
  Smectite-low-Fe-Mg -12.62     -1.78   10.84  Ca.02Na.15K.2Fe.29Fe.16Mg.9Al1.25Si3.75H2O12
  Spinel           -4.67     32.79   37.47  Al2MgO4
  Stilbite        -12.85    -12.07    0.78  Ca1.019Na.136K.006Al2.18Si6.82O18:7.33H2O
  Sylvite          -9.59     -8.75    0.83  KCl
  Tachyhydrite    -61.02    -43.87   17.14  Mg2CaCl6:12H2O
  Talc             -4.71     16.22   20.94  Mg3Si4O10(OH)2
  Tarapacaite     -15.45    -15.86   -0.41  K2CrO4
  Tenorite          1.91      9.54    7.62  CuO
  Tephroite        -2.34     20.63   22.97  Mn2SiO4
  Tobermorite-11A  -7.46     57.83   65.29  Ca5Si6H11O22.5
  Tobermorite-14A  -5.70     57.82   63.53  Ca5Si6H21O27.5
  Tobermorite-9A  -10.91     57.83   68.74  Ca5Si6H6O20
  Todorokite       33.64    -12.18  -45.82  Mn7O12:3H2O
  Tremolite        -2.27     58.51   60.79  Ca2Mg5Si8O22(OH)2
  Tridymite        -3.99     -7.82   -3.83  SiO2
  V              -114.65     -7.94  106.70  V
  V2O4            -36.87    -28.35    8.52  V2O4
  V3O5            -76.27    -62.92   13.35  V3O5
  V4O7            -95.79    -77.10   18.70  V4O7
  Wairakite       -11.21      6.63   17.83  CaAl2Si4O10(OH)4
  Wollastonite     -0.57     13.13   13.70  CaSiO3
  Wustite         -14.57     -2.20   12.37  Fe.947O
  Xonotlite       -12.79     78.78   91.57  Ca6Si6O17(OH)2
  Zincite          -0.50     10.67   11.17  ZnO
  Zn              -47.01     21.62   68.64  Zn
  Zn(ClO4)2:6H2O -146.16   -140.53    5.64  Zn(ClO4)2:6H2O
  Zn(g)           -63.59     21.62   85.21  Zn
  Zn(NO3)2:6H2O   -25.42    -22.01    3.41  Zn(NO3)2:6H2O
  Zn(OH)2(beta)    -1.23     10.67   11.90  Zn(OH)2
  Zn(OH)2(epsilon)  -0.96     10.67   11.63  Zn(OH)2
  Zn(OH)2(gamma)   -1.21     10.67   11.88  Zn(OH)2
  Zn2(OH)3Cl      -10.04      5.26   15.29  Zn2(OH)3Cl
  Zn2SiO4          -0.28     13.52   13.80  Zn2SiO4
  Zn3(AsO4)2      -87.30    -77.99    9.31  Zn3(AsO4)2
  Zn5(NO3)2(OH)8  -22.00     20.67   42.67  Zn5(NO3)2(OH)8
  ZnCl2           -28.55    -21.49    7.05  ZnCl2
  ZnCr2O4          -8.55     -0.70    7.84  ZnCr2O4
  ZnF2            -21.33    -21.84   -0.51  ZnF2
  Zoisite           0.90     43.87   42.98  Ca2Al3(SiO4)3OH

**For a gas, SI = log10(fugacity). Fugacity = pressure * phi / 1 atm.
  For ideal gases, phi = 1.

Initial solution 2.	 1WBRA2 

-----------------------------Solution composition------------------------------

	Elements           Molality       Moles

	Al                3.738e-03   3.738e-03
	As                4.204e-07   4.204e-07
	Ca                1.487e-03   1.487e-03
	Cl                2.782e-04   2.782e-04
	Cr                7.277e-07   7.277e-07
	Cu                5.747e-07   5.747e-07
	F                 2.856e-05   2.856e-05
	Fe                1.381e-05   1.381e-05
	Ga                2.223e-06   2.223e-06
	K                 1.001e-04   1.001e-04
	Mg                1.231e-08   1.231e-08
	Mn                8.375e-10   8.375e-10
	N(5)              5.298e-05   5.298e-05
	Na                1.874e-02   1.874e-02
	Si                2.099e-04   2.099e-04
	V                 1.578e-05   1.578e-05
	Zn                1.705e-07   1.705e-07

----------------------------Description of solution----------------------------

                                       pH  =  11.760    
                                       pe  =   4.000    
                        Activity of water  =   0.999
                 Ionic strength (mol/kgw)  =   1.771e-02
                       Mass of water (kg)  =   1.000e+00
                 Total alkalinity (eq/kg)  =   2.197e-02
                    Total carbon (mol/kg)  =   0.000e+00
                       Total CO2 (mol/kg)  =   0.000e+00
                         Temperature (°C)  =  25.60
                  Electrical balance (eq)  =   1.073e-02
 Percent error, 100*(Cat-|An|)/(Cat+|An|)  =  32.98
                               Iterations  =  24
                                  Total H  = 1.110577e+02
                                  Total O  = 5.554045e+01

----------------------------Distribution of species----------------------------

                                               Log       Log       Log    mole V
   Species          Molality    Activity  Molality  Activity     Gamma   cm³/mol

   OH-             6.629e-03   5.796e-03    -2.179    -2.237    -0.058     (0)  
   H+              1.942e-12   1.738e-12   -11.712   -11.760    -0.048      0.00
   H2O             5.553e+01   9.995e-01     1.744    -0.000     0.000     18.07
Al            3.738e-03
   AlO2-           3.728e-03   3.267e-03    -2.429    -2.486    -0.057     (0)  
   NaAlO2          1.026e-05   1.026e-05    -4.989    -4.989     0.000     (0)  
   HAlO2           1.610e-08   1.610e-08    -7.793    -7.793     0.000     (0)  
   Al(OH)2+        2.113e-14   1.852e-14   -13.675   -13.732    -0.057     (0)  
   AlOH+2          2.248e-20   1.333e-20   -19.648   -19.875    -0.227     (0)  
   AlF2+           5.400e-24   4.733e-24   -23.268   -23.325    -0.057     (0)  
   AlF3            1.457e-24   1.457e-24   -23.836   -23.836     0.000     (0)  
   AlF+2           8.197e-25   4.861e-25   -24.086   -24.313    -0.227     (0)  
   AlF4-           1.022e-26   8.954e-27   -25.991   -26.048    -0.057     (0)  
   Al+3            5.463e-27   1.987e-27   -26.263   -26.702    -0.439     (0)  
   Al2(OH)2+4      2.012e-37   2.666e-38   -36.696   -37.574    -0.878     (0)  
   Al3(OH)4+5      0.000e+00   0.000e+00   -45.598   -46.946    -1.348     (0)  
   Al13O4(OH)24+7   0.000e+00   0.000e+00   -66.896   -69.539    -2.643     (0)  
As(-3)        0.000e+00
   AsH3            0.000e+00   0.000e+00  -163.302  -163.302     0.000     (0)  
As(3)         0.000e+00
   AsO2OH-2        0.000e+00   0.000e+00   -60.324   -60.555    -0.231     (0)  
   H2AsO3-         0.000e+00   0.000e+00   -61.257   -61.314    -0.057     (0)  
   AsO2-           0.000e+00   0.000e+00   -61.277   -61.334    -0.057     (0)  
   HAsO2           0.000e+00   0.000e+00   -63.811   -63.811     0.000     (0)  
   As(OH)3         0.000e+00   0.000e+00   -63.870   -63.870     0.000     (0)  
As(5)         4.204e-07
   AsO3F-2         4.204e-07   2.469e-07    -6.376    -6.608    -0.231     (0)  
   HAsO3F-         3.635e-13   3.186e-13   -12.440   -12.497    -0.057     (0)  
   AsO4-3          2.731e-37   8.228e-38   -36.564   -37.085    -0.521     (0)  
   HAsO4-2         9.353e-38   5.492e-38   -37.029   -37.260    -0.231     (0)  
   H2AsO4-         0.000e+00   0.000e+00   -42.184   -42.241    -0.057     (0)  
   H3AsO4          0.000e+00   0.000e+00   -51.753   -51.753     0.000     (0)  
Ca            1.487e-03
   Ca+2            1.407e-03   8.575e-04    -2.852    -3.067    -0.215     (0)  
   CaOH+           7.948e-05   6.966e-05    -4.100    -4.157    -0.057     (0)  
   CaNO3+          2.255e-07   1.977e-07    -6.647    -6.704    -0.057     (0)  
   CaF+            1.222e-07   1.071e-07    -6.913    -6.970    -0.057     (0)  
   CaCl+           5.027e-08   4.406e-08    -7.299    -7.356    -0.057     (0)  
   CaCl2           1.246e-11   1.246e-11   -10.904   -10.904     0.000     (0)  
Cl(-1)        2.782e-04
   Cl-             2.775e-04   2.419e-04    -3.557    -3.616    -0.059     (0)  
   NaCl            6.975e-07   6.975e-07    -6.156    -6.156     0.000     (0)  
   CaCl+           5.027e-08   4.406e-08    -7.299    -7.356    -0.057     (0)  
   KCl             7.161e-10   7.161e-10    -9.145    -9.145     0.000     (0)  
   CaCl2           1.246e-11   1.246e-11   -10.904   -10.904     0.000     (0)  
   MgCl+           1.668e-12   1.462e-12   -11.778   -11.835    -0.057     (0)  
   Zn(OH)Cl        1.316e-13   1.316e-13   -12.881   -12.881     0.000     (0)  
   MnCl+           8.336e-15   7.306e-15   -14.079   -14.136    -0.057     (0)  
   HCl             9.448e-17   9.448e-17   -16.025   -16.025     0.000     (0)  
   ZnCl+           1.582e-17   1.387e-17   -16.801   -16.858    -0.057     (0)  
   CuCl+           6.549e-18   5.740e-18   -17.184   -17.241    -0.057     (0)  
   CuCl2-          2.145e-18   1.880e-18   -17.669   -17.726    -0.057     (0)  
   CuCl3-2         4.974e-21   2.921e-21   -20.303   -20.534    -0.231     (0)  
   ZnCl2           3.883e-21   3.883e-21   -20.411   -20.411     0.000     (0)  
   CuCl2           7.313e-22   7.313e-22   -21.136   -21.136     0.000     (0)  
   MnCl3-          1.050e-22   9.201e-23   -21.979   -22.036    -0.057     (0)  
   ZnCl3-          5.834e-25   5.113e-25   -24.234   -24.291    -0.057     (0)  
   FeCl+           9.040e-26   7.923e-26   -25.044   -25.101    -0.057     (0)  
   CrO3Cl-         1.382e-26   1.211e-26   -25.860   -25.917    -0.057     (0)  
   ZnCl4-2         1.586e-27   9.314e-28   -26.800   -27.031    -0.231     (0)  
   FeCl2           1.032e-31   1.032e-31   -30.986   -30.986     0.000     (0)  
   CuCl4-2         1.368e-33   8.033e-34   -32.864   -33.095    -0.231     (0)  
   FeCl+2          3.068e-35   1.819e-35   -34.513   -34.740    -0.227     (0)  
   FeCl2+          3.945e-36   3.457e-36   -35.404   -35.461    -0.057     (0)  
   FeCl4-2         2.980e-38   1.750e-38   -37.526   -37.757    -0.231     (0)  
   CrCl+2          0.000e+00   0.000e+00   -43.221   -43.448    -0.227     (0)  
   FeCl4-          0.000e+00   0.000e+00   -45.557   -45.614    -0.057     (0)  
   CrCl2+          0.000e+00   0.000e+00   -46.650   -46.707    -0.057     (0)  
Cl(1)         9.120e-31
   ClO-            9.119e-31   7.993e-31   -30.040   -30.097    -0.057     (0)  
   HClO            5.151e-35   5.151e-35   -34.288   -34.288     0.000     (0)  
Cl(3)         0.000e+00
   ClO2-           0.000e+00   0.000e+00   -49.422   -49.479    -0.057     (0)  
   HClO2           0.000e+00   0.000e+00   -58.070   -58.070     0.000     (0)  
Cl(5)         0.000e+00
   ClO3-           0.000e+00   0.000e+00   -54.978   -55.037    -0.058     (0)  
Cl(7)         0.000e+00
   ClO4-           0.000e+00   0.000e+00   -64.833   -64.892    -0.058     (0)  
   ZnClO4+         0.000e+00   0.000e+00   -77.040   -77.097    -0.057     (0)  
Cr(2)         0.000e+00
   Cr+2            0.000e+00   0.000e+00   -51.934   -52.161    -0.227     (0)  
Cr(3)         1.036e-20
   Cr(OH)4-        1.032e-20   9.049e-21   -19.986   -20.043    -0.057     (0)  
   Cr(OH)3         3.952e-23   3.952e-23   -22.403   -22.403     0.000     (0)  
   Cr(OH)2+        1.564e-26   1.371e-26   -25.806   -25.863    -0.057     (0)  
   CrOH+2          2.015e-32   1.195e-32   -31.696   -31.923    -0.227     (0)  
   Cr+3            5.711e-40   2.077e-40   -39.243   -39.682    -0.439     (0)  
   CrCl+2          0.000e+00   0.000e+00   -43.221   -43.448    -0.227     (0)  
   CrCl2+          0.000e+00   0.000e+00   -46.650   -46.707    -0.057     (0)  
   Cr2(OH)2+4      0.000e+00   0.000e+00   -60.027   -60.905    -0.878     (0)  
   Cr3(OH)4+5      0.000e+00   0.000e+00   -78.810   -80.158    -1.348     (0)  
Cr(5)         6.812e-09
   CrO4-3          6.812e-09   2.052e-09    -8.167    -8.688    -0.521     (0)  
Cr(6)         7.209e-07
   CrO4-2          7.209e-07   4.233e-07    -6.142    -6.373    -0.231     (0)  
   HCrO4-          2.798e-12   2.453e-12   -11.553   -11.610    -0.057     (0)  
   Cr2O7-2         3.368e-22   1.978e-22   -21.473   -21.704    -0.231     (0)  
   H2CrO4          2.011e-25   2.011e-25   -24.697   -24.697     0.000     (0)  
   CrO3Cl-         1.382e-26   1.211e-26   -25.860   -25.917    -0.057     (0)  
Cu(1)         5.552e-16
   Cu+             5.531e-16   4.848e-16   -15.257   -15.314    -0.057     (0)  
   CuCl2-          2.145e-18   1.880e-18   -17.669   -17.726    -0.057     (0)  
   CuCl3-2         4.974e-21   2.921e-21   -20.303   -20.534    -0.231     (0)  
Cu(2)         5.747e-07
   CuO2-2          5.745e-07   3.373e-07    -6.241    -6.472    -0.231     (0)  
   CuOH+           2.936e-10   2.573e-10    -9.532    -9.590    -0.057     (0)  
   Cu+2            1.423e-14   8.674e-15   -13.847   -14.062    -0.215     (0)  
   CuCl+           6.549e-18   5.740e-18   -17.184   -17.241    -0.057     (0)  
   CuF+            3.836e-18   3.362e-18   -17.416   -17.473    -0.057     (0)  
   CuCl2           7.313e-22   7.313e-22   -21.136   -21.136     0.000     (0)  
   CuCl4-2         1.368e-33   8.033e-34   -32.864   -33.095    -0.231     (0)  
F             2.856e-05
   F-              2.798e-05   2.446e-05    -4.553    -4.612    -0.058     (0)  
   AsO3F-2         4.204e-07   2.469e-07    -6.376    -6.608    -0.231     (0)  
   CaF+            1.222e-07   1.071e-07    -6.913    -6.970    -0.057     (0)  
   NaF             4.299e-08   4.299e-08    -7.367    -7.367     0.000     (0)  
   MgF+            5.225e-12   4.579e-12   -11.282   -11.339    -0.057     (0)  
   HAsO3F-         3.635e-13   3.186e-13   -12.440   -12.497    -0.057     (0)  
   HF              6.602e-14   6.602e-14   -13.180   -13.180     0.000     (0)  
   MnF+            1.049e-14   9.196e-15   -13.979   -14.036    -0.057     (0)  
   ZnF+            1.298e-17   1.138e-17   -16.887   -16.944    -0.057     (0)  
   CuF+            3.836e-18   3.362e-18   -17.416   -17.473    -0.057     (0)  
   HF2-            4.488e-19   3.933e-19   -18.348   -18.405    -0.057     (0)  
   AlF2+           5.400e-24   4.733e-24   -23.268   -23.325    -0.057     (0)  
   AlF3            1.457e-24   1.457e-24   -23.836   -23.836     0.000     (0)  
   AlF+2           8.197e-25   4.861e-25   -24.086   -24.313    -0.227     (0)  
   FeF+            2.866e-25   2.512e-25   -24.543   -24.600    -0.057     (0)  
   H2F2            1.059e-26   1.059e-26   -25.975   -25.975     0.000     (0)  
   AlF4-           1.022e-26   8.954e-27   -25.991   -26.048    -0.057     (0)  
   VO2F            3.695e-28   3.695e-28   -27.432   -27.432     0.000     (0)  
   VO2F2-          2.974e-30   2.607e-30   -29.527   -29.584    -0.057     (0)  
   FeF+2           2.742e-31   1.626e-31   -30.562   -30.789    -0.227     (0)  
   FeF2+           7.403e-32   6.489e-32   -31.131   -31.188    -0.057     (0)  
   VOF+            4.300e-38   3.769e-38   -37.366   -37.424    -0.057     (0)  
   VOF2            5.555e-40   5.555e-40   -39.255   -39.255     0.000     (0)  
   SiF6-2          0.000e+00   0.000e+00   -53.923   -54.154    -0.231     (0)  
Fe(2)         1.020e-17
   Fe(OH)3-        9.730e-18   8.528e-18   -17.012   -17.069    -0.057     (0)  
   Fe(OH)2         3.725e-19   3.725e-19   -18.429   -18.429     0.000     (0)  
   FeOH+           9.302e-20   8.153e-20   -19.031   -19.089    -0.057     (0)  
   Fe(OH)4-2       8.353e-21   4.905e-21   -20.078   -20.309    -0.231     (0)  
   Fe+2            7.356e-22   4.483e-22   -21.133   -21.348    -0.215     (0)  
   FeF+            2.866e-25   2.512e-25   -24.543   -24.600    -0.057     (0)  
   FeCl+           9.040e-26   7.923e-26   -25.044   -25.101    -0.057     (0)  
   FeCl2           1.032e-31   1.032e-31   -30.986   -30.986     0.000     (0)  
   FeCl4-2         2.980e-38   1.750e-38   -37.526   -37.757    -0.231     (0)  
Fe(3)         1.381e-05
   Fe(OH)4-        1.373e-05   1.203e-05    -4.862    -4.920    -0.057     (0)  
   Fe(OH)3         8.331e-08   8.331e-08    -7.079    -7.079     0.000     (0)  
   Fe(OH)2+        3.533e-13   3.097e-13   -12.452   -12.509    -0.057     (0)  
   FeOH+2          2.742e-21   1.626e-21   -20.562   -20.789    -0.227     (0)  
   Fe+3            1.204e-30   4.379e-31   -29.919   -30.359    -0.439     (0)  
   FeF+2           2.742e-31   1.626e-31   -30.562   -30.789    -0.227     (0)  
   FeF2+           7.403e-32   6.489e-32   -31.131   -31.188    -0.057     (0)  
   FeNO3+2         3.397e-34   2.014e-34   -33.469   -33.696    -0.227     (0)  
   FeCl+2          3.068e-35   1.819e-35   -34.513   -34.740    -0.227     (0)  
   FeCl2+          3.945e-36   3.457e-36   -35.404   -35.461    -0.057     (0)  
   Fe2(OH)2+4      5.372e-40   0.000e+00   -39.270   -40.148    -0.878     (0)  
   FeCl4-          0.000e+00   0.000e+00   -45.557   -45.614    -0.057     (0)  
   Fe3(OH)4+5      0.000e+00   0.000e+00   -48.989   -50.337    -1.348     (0)  
Ga            2.223e-06
   Ga+3            2.223e-06   6.992e-07    -5.653    -6.155    -0.502     (0)  
H(0)          4.910e-35
   H2              2.455e-35   2.465e-35   -34.610   -34.608     0.002     (0)  
K             1.001e-04
   K+              9.989e-05   8.710e-05    -4.000    -4.060    -0.059     (0)  
   KOH             1.737e-07   1.737e-07    -6.760    -6.760     0.000     (0)  
   KCl             7.161e-10   7.161e-10    -9.145    -9.145     0.000     (0)  
Mg            1.231e-08
   Mg+2            1.230e-08   7.740e-09    -7.910    -8.111    -0.201     (0)  
   MgF+            5.225e-12   4.579e-12   -11.282   -11.339    -0.057     (0)  
   MgCl+           1.668e-12   1.462e-12   -11.778   -11.835    -0.057     (0)  
   Mg4(OH)4+4      5.271e-25   6.982e-26   -24.278   -25.156    -0.878     (0)  
Mn(2)         8.375e-10
   Mn(OH)2         2.915e-10   2.915e-10    -9.535    -9.535     0.000     (0)  
   MnOH+           2.356e-10   2.065e-10    -9.628    -9.685    -0.057     (0)  
   Mn(OH)3-        1.794e-10   1.573e-10    -9.746    -9.803    -0.057     (0)  
   Mn2(OH)3+       5.332e-11   4.673e-11   -10.273   -10.330    -0.057     (0)  
   Mn+2            2.292e-11   1.397e-11   -10.640   -10.855    -0.215     (0)  
   Mn(OH)4-2       1.304e-12   7.660e-13   -11.885   -12.116    -0.231     (0)  
   MnF+            1.049e-14   9.196e-15   -13.979   -14.036    -0.057     (0)  
   MnCl+           8.336e-15   7.306e-15   -14.079   -14.136    -0.057     (0)  
   MnNO3+          1.162e-15   1.018e-15   -14.935   -14.992    -0.057     (0)  
   Mn(NO3)2        1.177e-19   1.177e-19   -18.929   -18.929     0.000     (0)  
   Mn2OH+3         9.828e-21   3.091e-21   -20.008   -20.510    -0.502     (0)  
   MnCl3-          1.050e-22   9.201e-23   -21.979   -22.036    -0.057     (0)  
Mn(3)         1.239e-32
   Mn+3            1.239e-32   3.896e-33   -31.907   -32.409    -0.502     (0)  
Mn(6)         1.700e-19
   MnO4-2          1.700e-19   9.982e-20   -18.770   -19.001    -0.231     (0)  
Mn(7)         5.424e-25
   MnO4-           5.424e-25   4.742e-25   -24.266   -24.324    -0.058     (0)  
N(5)          5.298e-05
   NO3-            5.275e-05   4.600e-05    -4.278    -4.337    -0.059     (0)  
   CaNO3+          2.255e-07   1.977e-07    -6.647    -6.704    -0.057     (0)  
   MnNO3+          1.162e-15   1.018e-15   -14.935   -14.992    -0.057     (0)  
   HNO3            4.240e-18   4.240e-18   -17.373   -17.373     0.000     (0)  
   Mn(NO3)2        1.177e-19   1.177e-19   -18.929   -18.929     0.000     (0)  
   FeNO3+2         3.397e-34   2.014e-34   -33.469   -33.696    -0.227     (0)  
Na            1.874e-02
   Na+             1.863e-02   1.633e-02    -1.730    -1.787    -0.057     (0)  
   NaHSiO3         7.948e-05   7.948e-05    -4.100    -4.100     0.000     (0)  
   NaOH            1.631e-05   1.631e-05    -4.788    -4.788     0.000     (0)  
   NaAlO2          1.026e-05   1.026e-05    -4.989    -4.989     0.000     (0)  
   NaCl            6.975e-07   6.975e-07    -6.156    -6.156     0.000     (0)  
   NaF             4.299e-08   4.299e-08    -7.367    -7.367     0.000     (0)  
O(0)          3.259e-23
   O2              1.629e-23   1.636e-23   -22.788   -22.786     0.002     (0)  
Si            2.099e-04
   HSiO3-          1.192e-04   1.045e-04    -3.924    -3.981    -0.057     (0)  
   NaHSiO3         7.948e-05   7.948e-05    -4.100    -4.100     0.000     (0)  
   H2SiO4-2        9.625e-06   5.652e-06    -5.017    -5.248    -0.231     (0)  
   SiO2            1.558e-06   1.558e-06    -5.807    -5.807     0.000     (0)  
   H4(H2SiO4)4-4   6.249e-12   7.393e-13   -11.204   -12.131    -0.927     (0)  
   H6(H2SiO4)4-2   7.586e-14   4.455e-14   -13.120   -13.351    -0.231     (0)  
   SiF6-2          0.000e+00   0.000e+00   -53.923   -54.154    -0.231     (0)  
V(3)          0.000e+00
   V(OH)2+         0.000e+00   0.000e+00   -40.893   -40.950    -0.057     (0)  
   VOH+2           0.000e+00   0.000e+00   -48.824   -49.050    -0.227     (0)  
   V+3             0.000e+00   0.000e+00   -58.048   -58.550    -0.502     (0)  
   V2(OH)2+4       0.000e+00   0.000e+00   -96.503   -97.381    -0.878     (0)  
V(4)          2.162e-31
   VOOH+           2.162e-31   1.895e-31   -30.665   -30.722    -0.057     (0)  
   VO+2            2.599e-37   1.541e-37   -36.585   -36.812    -0.227     (0)  
   VOF+            4.300e-38   3.769e-38   -37.366   -37.424    -0.057     (0)  
   VOF2            5.555e-40   5.555e-40   -39.255   -39.255     0.000     (0)  
   (VO)2(OH)2+2    0.000e+00   0.000e+00   -56.548   -56.775    -0.227     (0)  
V(5)          1.578e-05
   VO3OH-2         1.420e-05   8.341e-06    -4.848    -5.079    -0.231     (0)  
   HVO4-2          1.486e-06   8.727e-07    -5.828    -6.059    -0.231     (0)  
   VO4-3           8.757e-08   2.638e-08    -7.058    -7.579    -0.521     (0)  
   H2VO4-          2.076e-10   1.820e-10    -9.683    -9.740    -0.057     (0)  
   VO2(OH)2-       1.276e-10   1.119e-10    -9.894    -9.951    -0.057     (0)  
   VO(OH)3         1.944e-18   1.944e-18   -17.711   -17.711     0.000     (0)  
   VO2+            7.699e-27   6.748e-27   -26.114   -26.171    -0.057     (0)  
   VO2F            3.695e-28   3.695e-28   -27.432   -27.432     0.000     (0)  
   VO2F2-          2.974e-30   2.607e-30   -29.527   -29.584    -0.057     (0)  
Zn            1.705e-07
   Zn(OH)3-        1.041e-07   9.120e-08    -6.983    -7.040    -0.057     (0)  
   Zn(OH)2         5.116e-08   5.116e-08    -7.291    -7.291     0.000     (0)  
   Zn(OH)4-2       1.523e-08   8.943e-09    -7.817    -8.049    -0.231     (0)  
   ZnOH+           2.480e-11   2.173e-11   -10.606   -10.663    -0.057     (0)  
   Zn(OH)Cl        1.316e-13   1.316e-13   -12.881   -12.881     0.000     (0)  
   Zn+2            5.404e-14   3.293e-14   -13.267   -13.482    -0.215     (0)  
   ZnCl+           1.582e-17   1.387e-17   -16.801   -16.858    -0.057     (0)  
   ZnF+            1.298e-17   1.138e-17   -16.887   -16.944    -0.057     (0)  
   ZnCl2           3.883e-21   3.883e-21   -20.411   -20.411     0.000     (0)  
   ZnCl3-          5.834e-25   5.113e-25   -24.234   -24.291    -0.057     (0)  
   ZnCl4-2         1.586e-27   9.314e-28   -26.800   -27.031    -0.231     (0)  
   ZnClO4+         0.000e+00   0.000e+00   -77.040   -77.097    -0.057     (0)  

------------------------------Saturation indices-------------------------------

  Phase               SI** log IAP   log K(298 K,   1 atm)

  Afwillite       -10.11     49.74   59.85  Ca3Si2O4(OH)6
  Akermanite       -0.43     44.70   45.13  Ca2MgSi2O7
  Al             -123.91     25.67  149.58  Al
  Al(g)          -174.50     25.67  200.17  Al
  Albite           -1.51      1.13    2.64  NaAlSi3O8
  Albite_high      -2.83      1.13    3.95  NaAlSi3O8
  Albite_low       -1.51      1.13    2.64  NaAlSi3O8
  AlF3            -23.26    -40.54  -17.28  AlF3
  Amesite-14A       9.34     84.33   74.99  Mg4Al4Si2O10(OH)8
  Analcime         -0.07      5.96    6.03  Na.96Al.96Si2.04O6:H2O
  Analcime-dehy    -6.42      5.96   12.38  Na.96Al.96Si2.04O6
  Andalusite       -4.45     11.35   15.80  Al2SiO5
  Andradite        20.70     53.78   33.08  Ca3Fe2(SiO4)3
  Annite          -23.87      5.37   29.24  KFe3AlSi3O10(OH)2
  Anorthite        -0.38     25.99   26.37  CaAl2(SiO4)2
  Antarcticite    -14.39    -10.30    4.09  CaCl2:6H2O
  Anthophyllite    -4.91     61.40   66.31  Mg7Si8O22(OH)2
  Antigorite       67.70    542.15  474.45  Mg48Si34O85(OH)62
  Arsenolite     -126.33   -146.15  -19.81  As2O3
  As              -98.57    -55.98   42.59  As
  As2O5          -110.12   -108.00    2.12  As2O5
  As4O6(cubi)    -252.53   -292.29  -39.76  As4O6
  As4O6(mono)    -252.30   -292.29  -39.99  As4O6
  Atacamite        -7.14      7.08   14.22  Cu4Cl2(OH)6
  Beidellite-Ca    -3.34      2.05    5.39  Ca.165Al2.33Si3.67O10(OH)2
  Beidellite-H     -5.76     -1.33    4.44  H.33Al2.33Si3.67O10(OH)2
  Beidellite-K     -3.90      1.21    5.11  K.33Al2.33Si3.67O10(OH)2
  Beidellite-Mg    -4.13      1.22    5.35  Mg.165Al2.33Si3.67O10(OH)2
  Beidellite-Na    -3.48      1.96    5.45  Na.33Al2.33Si3.67O10(OH)2
  Birnessite       21.31    -64.24  -85.55  Mn8O14:5H2O
  Bischofite      -19.74    -15.35    4.39  MgCl2:6H2O
  Bixbyite          6.77      5.74   -1.03  Mn2O3
  Boehmite          1.07      8.58    7.51  AlO2H
  Brucite          -0.84     15.41   16.24  Mg(OH)2
  Ca             -107.70     31.85  139.54  Ca
  Ca(g)          -132.87     31.85  164.72  Ca
  Ca-Al_Pyroxene   -3.97     31.80   35.78  CaAl2SiO6
  Ca2Al2O5:8H2O    -1.51     58.06   59.57  Ca2Al2O5:8H2O
  Ca2Cl2(OH)2:H2O -16.14     10.15   26.29  Ca2Cl2(OH)2:H2O
  Ca2V2O7          -5.10    -44.81  -39.71  Ca2V2O7
  Ca3(AsO4)2      -64.39    -46.64   17.75  Ca3(AsO4)2
  Ca3Al2O6        -34.22     78.51  112.74  Ca3Al2O6
  Ca3V2O8          -6.03    -24.36  -18.32  Ca3V2O8
  Ca4Al2Fe2O10    -31.27    108.81  140.08  Ca4Al2Fe2O10
  Ca4Al2O7:13H2O   -8.29     98.96  107.25  Ca4Al2O7:13H2O
  Ca4Al2O7:19H2O   -4.72     98.96  103.68  Ca4Al2O7:19H2O
  Ca4Cl2(OH)6:13H2O -17.27     51.06   68.33  Ca4Cl2(OH)6:13H2O
  CaAl2O4          -9.15     37.61   46.75  CaAl2O4
  CaAl2O4:10H2O    -0.39     37.61   37.99  CaAl2O4:10H2O
  CaAl4O7         -13.57     54.76   68.34  CaAl4O7
  Carnallite      -27.29    -23.02    4.27  KMgCl3:6H2O
  CaV2O6          -13.90    -65.26  -51.36  CaV2O6
  Celadonite        1.17      8.46    7.28  KMgAlSi4O10(OH)2
  Chalcedony       -2.06     -5.81   -3.75  SiO2
  Chamosite-7A    -16.94     15.69   32.63  Fe2Al2SiO5(OH)4
  Chloromagnesite -37.10    -15.34   21.76  MgCl2
  Chromite        -21.70     -6.63   15.07  FeCr2O4
  Chrysocolla      -2.56      3.65    6.21  CuSiH4O5
  Chrysotile        3.66     34.61   30.95  Mg3Si2O5(OH)4
  Cl2(g)          -45.12    -42.15    2.98  Cl2
  Claudetite     -126.38   -146.15  -19.77  As2O3
  Clinochlore-14A   9.94     76.78   66.84  Mg5Al2Si3O10(OH)8
  Clinochlore-7A    6.57     76.78   70.20  Mg5Al2Si3O10(OH)8
  Clinoptilolite-Ca -11.73    -19.27   -7.54  Ca1.7335Al3.45Fe.017Si14.533O36:10.922H2O
  Clinoptilolite-dehy-Ca -47.29    -19.27   28.03  Ca1.7335Al3.45Fe.017Si14.533O36
  Clinoptilolite-dehy-K -52.16    -28.02   24.14  K3.467Al3.45Fe.017Si14.533O36
  Clinoptilolite-dehy-Na -48.07    -20.14   27.92  Na3.467Al3.45Fe.017Si14.533O36
  Clinoptilolite-hy-Ca -11.73    -19.27   -7.54  Ca1.7335Al3.45Fe.017Si14.533O36:11.645H2O
  Clinoptilolite-hy-K -16.59    -28.03  -11.44  K3.467Al3.45Fe.017Si14.533O36:7.499H2O
  Clinoptilolite-hy-Na -12.50    -20.15   -7.64  Na3.467Al3.45Fe.017Si14.533O36:10.877H2O
  Clinoptilolite-K -16.60    -28.03  -11.42  K3.467Al3.45Fe.017Si14.533O36:10.922H2O
  Clinoptilolite-Na -12.51    -20.15   -7.64  Na3.467Al3.45Fe.017Si14.533O36:10.922H2O
  Clinozoisite      6.28     49.22   42.94  Ca2Al3Si3O12(OH)
  Coesite          -2.60     -5.81   -3.21  SiO2
  Cordierite_anhyd -15.76     36.09   51.85  Mg2Al4Si5O18
  Cordierite_hydr -13.28     36.09   49.37  Mg2Al4Si5O18:H2O
  Corundum         -1.04     17.16   18.20  Al2O3
  Cr              -85.75     12.69   98.44  Cr
  CrCl3           -68.39    -50.53   17.86  CrCl3
  CrF3            -44.85    -53.52   -8.67  CrF3
  CrF4            -82.40    -94.75  -12.35  CrF4
  Cristobalite(alpha)  -2.34     -5.81   -3.47  SiO2
  Cristobalite(beta)  -2.78     -5.81   -3.02  SiO2
  CrO2            -10.16    -29.27  -19.11  CrO2
  CrO3            -26.33    -29.89   -3.56  CrO3
  Cronstedtite-7A  -7.71      8.38   16.09  Fe2Fe2SiO5(OH)4
  Cu              -10.57     20.85   31.42  Cu
  Cu(g)           -62.61     20.85   83.46  Cu
  CuCl2           -25.00    -21.29    3.70  CuCl2
  CuCr2O4         -15.48      0.65   16.13  CuCr2O4
  CuF             -27.01    -19.93    7.08  CuF
  CuF2            -22.66    -23.28   -0.62  CuF2
  CuF2:2H2O       -18.74    -23.29   -4.55  CuF2:2H2O
  Cuprite          -5.21     -7.11   -1.90  Cu2O
  Daphnite-14A    -41.33     10.59   51.92  Fe5AlAlSi3O10(OH)8
  Daphnite-7A     -44.70     10.59   55.29  Fe5AlAlSi3O10(OH)8
  Delafossite       7.81      1.37   -6.44  CuFeO2
  Diaspore          1.47      8.58    7.11  AlHO2
  Dicalcium_silicate  -1.95     35.10   37.05  Ca2SiO4
  Diopside          3.41     24.25   20.84  CaMgSi2O6
  Dioptase         -2.40      3.65    6.05  CuSiO2(OH)2
  Enstatite        -1.66      9.60   11.26  MgSiO3
  Epidote          12.92     45.56   32.64  Ca2FeAl2Si3O12OH
  Epidote-ord      12.93     45.56   32.63  FeCa2Al2(OH)(SiO4)3
  Eskolaite       -16.37    -25.61   -9.23  Cr2O3
  F2(g)           -99.71    -44.14   55.57  F2
  Fayalite        -20.47     -1.46   19.01  Fe2SiO4
  Fe              -45.32     13.56   58.89  Fe
  Fe(OH)2         -11.69      2.17   13.86  Fe(OH)2
  Fe(OH)3          -0.69      4.92    5.61  Fe(OH)3
  FeF2            -28.13    -30.57   -2.44  FeF2
  FeF3            -24.93    -44.19  -19.26  FeF3
  FeO             -11.31      2.17   13.49  FeO
  Ferrite-Ca        8.89     30.30   21.40  CaFe2O4
  Ferrite-Cu        9.09     19.30   10.21  CuFe2O4
  Ferrite-Dicalcium  -5.88     50.75   56.63  Ca2Fe2O5
  Ferrite-Mg        4.33     25.25   20.92  MgFe2O4
  Ferrite-Zn        8.26     19.88   11.62  ZnFe2O4
  Ferrosilite     -11.02     -3.64    7.39  FeSiO3
  FeV2O4         -324.32    -44.37  279.95  FeV2O4
  Fluorite         -2.23    -12.29  -10.06  CaF2
  Forsterite       -2.73     25.01   27.74  Mg2SiO4
  Foshagite        -1.28     64.39   65.67  Ca4Si3O9(OH)2:0.5H2O
  Ga              -45.90     46.21   92.11  Ga
  Gehlenite        -3.80     52.25   56.05  Ca2Al2SiO7
  Gibbsite          0.87      8.58    7.70  Al(OH)3
  Gismondine       10.27     51.99   41.72  Ca2Al4Si4O16:9H2O
  Goethite          4.41      4.92    0.51  FeOOH
  Greenalite      -27.62     -5.10   22.52  Fe3Si2O5(OH)4
  Grossular         9.47     61.09   51.62  Ca3Al2(SiO4)3
  Gyrolite          0.71     23.48   22.77  Ca2Si3O7(OH)2:1.5H2O
  H2(g)           -31.51    -34.61   -3.10  H2
  H2O(g)           -1.57     -0.00    1.57  H2O
  Halite           -6.97     -5.40    1.56  NaCl
  Hatrurite       -17.65     55.55   73.20  Ca3SiO5
  Hausmannite       8.36     18.41   10.05  Mn3O4
  HCl(g)          -21.65    -15.38    6.28  HCl
  Hedenbergite     -8.48     11.01   19.49  CaFe(SiO3)2
  Hematite          9.81      9.84    0.03  Fe2O3
  Hercynite        -9.35     19.33   28.68  FeAl2O4
  Hillebrandite    -1.60     35.10   36.70  Ca2SiO3(OH)2:0.17H2O
  Hydrophilite    -22.02    -10.30   11.72  CaCl2
  Ice              -0.14     -0.00    0.14  H2O
  Illite           -0.94      7.88    8.82  K0.6Mg0.25Al1.8Al0.5Si3.5O10(OH)2
  Jadeite          -1.34      6.94    8.28  NaAl(SiO3)2
  K               -57.44     13.40   70.84  K
  K(g)            -68.01     13.40   81.41  K
  K-Feldspar       -0.76     -1.14   -0.39  KAlSi3O8
  K2O             -68.49     15.40   83.89  K2O
  Kalsilite        -0.34     10.47   10.81  KAlSiO4
  Kaolinite        -1.12      5.54    6.66  Al2Si2O5(OH)4
  Karelianite     -56.43    -46.54    9.89  V2O3
  Katoite          -0.43     78.51   78.94  Ca3Al2H12O12
  KMgCl3          -44.22    -23.02   21.20  KMgCl3
  KMgCl3:2H2O     -36.96    -23.02   13.93  KMgCl3:2H2O
  Kyanite          -4.18     11.35   15.53  Al2SiO5
  Lammerite       -81.18    -79.63    1.55  Cu3(AsO4)2
  Larnite          -3.24     35.10   38.34  Ca2SiO4
  Laumontite        0.93     14.38   13.45  CaAl2Si4O12:4H2O
  Lawrencite      -37.61    -28.58    9.02  FeCl2
  Lawsonite         3.97     25.99   22.02  CaAl2Si2O7(OH)2:H2O
  Lime            -12.05     20.45   32.50  CaO
  Lopezite        -26.96    -44.39  -17.43  K2Cr2O7
  Magnesiochromite -14.98      6.60   21.59  MgCr2O4
  Magnetite         1.67     12.01   10.34  Fe3O4
  Manganite         3.03      2.87   -0.16  MnO(OH)
  Manganosite      -5.21     12.66   17.87  MnO
  Margarite         2.41     43.15   40.74  CaAl4Si2O10(OH)2
  Maximum_Microcline  -0.76     -1.14   -0.39  KAlSi3O8
  Mayenite       -127.20    365.53  492.73  Ca12Al14O33
  Merwinite        -3.11     65.15   68.26  MgCa3(SiO4)2
  Mesolite          6.34     19.77   13.43  Na.676Ca.657Al1.99Si3.01O10:2.647H2O
  Mg              -95.46     26.80  122.26  Mg
  Mg(g)          -115.13     26.80  141.93  Mg
  Mg2V2O7         -24.00    -54.90  -30.90  Mg2V2O7
  MgCl2:2H2O      -28.04    -15.34   12.70  MgCl2:2H2O
  MgCl2:4H2O      -22.63    -15.34    7.29  MgCl2:4H2O
  MgCl2:H2O       -31.37    -15.34   16.03  MgCl2:H2O
  MgOHCl          -15.82      0.03   15.85  MgOHCl
  MgV2O6          -24.46    -70.31  -45.85  MgV2O6
  Minnesotaite    -30.51    -16.72   13.80  Fe3Si4O10(OH)2
  Mn              -58.70     24.06   82.76  Mn
  Mn(OH)2(am)      -2.61     12.66   15.27  Mn(OH)2
  Mn(OH)3          -3.47      2.87    6.34  Mn(OH)3
  MnCl2:2H2O      -22.07    -18.09    3.99  MnCl2:2H2O
  MnCl2:4H2O      -20.84    -18.09    2.75  MnCl2:4H2O
  MnCl2:H2O       -23.61    -18.09    5.52  MnCl2:H2O
  MnO2(gamma)       1.20    -14.93  -16.13  MnO2
  MnV2O6          -20.98    -73.05  -52.08  MnV2O6
  Molysite        -54.62    -41.21   13.42  FeCl3
  Monticellite      0.59     30.05   29.46  CaMgSiO4
  Montmor-Ca       -2.75     -0.44    2.31  Ca.165Mg.33Al1.67Si4O10(OH)2
  Montmor-K        -3.24     -1.28    1.96  K.33Mg.33Al1.67Si4O10(OH)2
  Montmor-Mg       -3.47     -1.28    2.20  Mg.495Al1.67Si4O10(OH)2
  Montmor-Na       -2.83     -0.53    2.30  Na.33Mg.33Al1.67Si4O10(OH)2
  Mordenite        -6.45    -11.80   -5.36  Ca.2895Na.361Al.94Si5.06O12:3.468H2O
  Mordenite-dehy  -21.54    -11.80    9.74  Ca.2895Na.361Al.94Si5.06O12
  Muscovite         2.65     16.01   13.36  KAl3Si3O10(OH)2
  Na              -51.57     15.67   67.24  Na
  Na(g)           -65.02     15.67   80.69  Na
  Na2Cr2O7        -29.67    -39.84  -10.17  Na2Cr2O7
  Na2CrO4         -12.84     -9.95    2.89  Na2CrO4
  Na2O            -47.35     19.95   67.29  Na2O
  Na2SiO3          -8.04     14.14   22.17  Na2SiO3
  Na4SiO4         -36.40     34.08   70.48  Na4SiO4
  Na6Si2O7        -53.14     48.22  101.36  Na6Si2O7
  NaFeO2           -4.93     14.89   19.83  NaFeO2
  Nantokite       -12.18    -18.93   -6.75  CuCl
  Natrolite         1.35     19.68   18.33  Na2Al2Si3O10:2H2O
  Natrosilite      -9.72      8.33   18.05  Na2Si2O5
  Nepheline        -0.96     12.74   13.70  NaAlSiO4
  Niter            -8.19     -8.40   -0.21  KNO3
  NO2(g)          -18.72    -10.40    8.32  NO2
  Nontronite-Ca     6.48     -5.27  -11.74  Ca.165Fe2Al.33Si3.67H2O12
  Nontronite-H      4.06     -8.64  -12.70  H.33Fe2Al.33Si3.67H2O12
  Nontronite-K      5.92     -6.10  -12.02  K.33Fe2Al.33Si3.67H2O12
  Nontronite-Mg     5.69     -6.10  -11.78  Mg.165Fe2Al.33Si3.67H2O12
  Nontronite-Na     6.34     -5.35  -11.69  Na.33Fe2Al.33Si3.67H2O12
  O2(g)           -19.89    -22.79   -2.90  O2
  Okenite          -1.47      8.84   10.31  CaSi2O4(OH)2:H2O
  Oxychloride-Mg  -10.39     15.44   25.83  Mg2Cl(OH)3:4H2O
  Paragonite        1.00     18.28   17.28  NaAl3Si3O10(OH)2
  Pargasite         2.01    103.40  101.39  NaCa2Al3Mg4Si6O22(OH)2
  Periclase        -5.86     15.41   21.27  MgO
  Phlogopite        7.89     45.08   37.19  KAlMg3Si3O10(OH)2
  Portlandite      -2.05     20.45   22.50  Ca(OH)2
  Prehnite          7.96     40.64   32.68  Ca2Al2Si3O10(OH)2
  Pseudowollastonite   0.71     14.65   13.93  CaSiO3
  Pyrolusite        2.70    -14.93  -17.63  MnO2
  Pyrophyllite     -6.33     -6.07    0.25  Al2Si4O10(OH)2
  Quartz           -1.79     -5.81   -4.02  SiO2
  Rankinite        -1.97     49.74   51.72  Ca3Si2O7
  Rhodonite        -2.81      6.86    9.67  MnSiO3
  Ripidolite-14A  -10.27     50.30   60.58  Mg3Fe2Al2Si3O10(OH)8
  Ripidolite-7A   -13.65     50.30   63.95  Mg3Fe2Al2Si3O10(OH)8
  Sanidine_high    -1.95     -1.14    0.81  KAlSi3O8
  Saponite-Ca       5.05     31.12   26.07  Ca.165Mg3Al.33Si3.67O10(OH)2
  Saponite-H        2.63     27.74   25.11  H.33Mg3Al.33Si3.67O10(OH)2
  Saponite-K        4.49     30.28   25.79  K.33Mg3Al.33Si3.67O10(OH)2
  Saponite-Mg       4.26     30.29   26.03  Mg3.165Al.33Si3.67O10(OH)2
  Saponite-Na       4.91     31.03   26.12  Na.33Mg3Al.33Si3.67O10(OH)2
  Scacchite       -26.80    -18.09    8.71  MnCl2
  Scolecite         4.51     20.19   15.67  CaAl2Si3O10:3H2O
  Sellaite         -7.89    -17.33   -9.45  MgF2
  Sepiolite        -3.38     26.79   30.17  Mg4Si6O15(OH)2:6H2O
  Shcherbinaite   -27.36    -28.82   -1.46  V2O5
  Si             -131.58     16.98  148.56  Si
  Si(g)          -202.50     16.98  219.48  Si
  SiF4(g)         -56.04    -71.29  -15.25  SiF4
  Sillimanite      -4.81     11.35   16.16  Al2SiO5
  SiO2(am)         -3.07     -5.81   -2.74  SiO2
  Smectite-high-Fe-Mg  -3.97     13.23   17.20  Ca.025Na.1K.2Fe.5Fe.2Mg1.15Al1.25Si3.5H2O12
  Smectite-low-Fe-Mg  -3.17      7.67   10.84  Ca.02Na.15K.2Fe.29Fe.16Mg.9Al1.25Si3.75H2O12
  Spinel           -4.90     32.56   37.47  Al2MgO4
  Stilbite          0.55      1.34    0.78  Ca1.019Na.136K.006Al2.18Si6.82O18:7.33H2O
  Sylvite          -8.51     -7.68    0.83  KCl
  Tachyhydrite    -58.13    -40.99   17.14  Mg2CaCl6:12H2O
  Talc              2.06     23.00   20.94  Mg3Si4O10(OH)2
  Tarapacaite     -14.09    -14.49   -0.41  K2CrO4
  Tenorite          1.83      9.46    7.62  CuO
  Tephroite        -3.45     19.52   22.97  Mn2SiO4
  Tobermorite-11A   2.13     67.42   65.29  Ca5Si6H11O22.5
  Tobermorite-14A   3.89     67.42   63.53  Ca5Si6H21O27.5
  Tobermorite-9A   -1.32     67.42   68.74  Ca5Si6H6O20
  Todorokite       20.52    -25.30  -45.82  Mn7O12:3H2O
  Tremolite        10.70     71.49   60.79  Ca2Mg5Si8O22(OH)2
  Tridymite        -1.98     -5.81   -3.83  SiO2
  V              -112.88     -6.18  106.70  V
  V2O4            -35.10    -26.58    8.52  V2O4
  V3O5            -73.18    -59.83   13.35  V3O5
  V4O7            -91.82    -73.13   18.70  V4O7
  Wairakite        -3.46     14.38   17.83  CaAl2Si4O10(OH)4
[...]
   H2VO4-          5.425e-11   4.955e-11   -10.266   -10.305    -0.039     (0)  
   VO2(OH)2-       2.495e-11   2.279e-11   -10.603   -10.642    -0.039     (0)  
   VO(OH)3         7.721e-19   7.721e-19   -18.112   -18.112     0.000     (0)  
   VO2+            5.717e-27   5.221e-27   -26.243   -26.282    -0.039     (0)  
   VO2HPO4-        9.308e-28   8.502e-28   -27.031   -27.070    -0.039     (0)  
   VO2F            2.782e-28   2.782e-28   -27.556   -27.556     0.000     (0)  
   VO2F2-          2.090e-30   1.909e-30   -29.680   -29.719    -0.039     (0)  
   VO2(HPO4)2-3    2.740e-31   1.206e-31   -30.562   -30.919    -0.357     (0)  
   VO2H2PO4        0.000e+00   0.000e+00   -42.690   -42.690     0.000     (0)  
Zn            1.204e-07
   Zn(OH)3-        5.830e-08   5.325e-08    -7.234    -7.274    -0.039     (0)  
   Zn(OH)2         5.822e-08   5.822e-08    -7.235    -7.235     0.000     (0)  
   Zn(OH)4-2       3.857e-09   2.679e-09    -8.414    -8.572    -0.158     (0)  
   ZnOH+           7.480e-11   6.832e-11   -10.126   -10.165    -0.039     (0)  
   ZnPO4-          5.530e-13   5.051e-13   -12.257   -12.297    -0.039     (0)  
   Zn+2            2.014e-13   1.424e-13   -12.696   -12.847    -0.151     (0)  
   Zn(OH)Cl        4.557e-14   4.557e-14   -13.341   -13.341     0.000     (0)  
   ZnHPO4          6.239e-17   6.239e-17   -16.205   -16.205     0.000     (0)  
   ZnF+            5.239e-17   4.785e-17   -16.281   -16.320    -0.039     (0)  
   ZnCl+           1.350e-17   1.233e-17   -16.870   -16.909    -0.039     (0)  
   ZnCl2           5.019e-22   5.019e-22   -21.299   -21.299     0.000     (0)  
   ZnCl3-          1.012e-26   9.241e-27   -25.995   -26.034    -0.039     (0)  
   ZnCl4-2         3.601e-30   2.501e-30   -29.444   -29.602    -0.158     (0)  
   ZnH2PO4+        3.424e-31   3.127e-31   -30.466   -30.505    -0.039     (0)  
   ZnClO4+         0.000e+00   0.000e+00   -76.773   -76.813    -0.039     (0)  

------------------------------Saturation indices-------------------------------

  Phase               SI** log IAP   log K(303 K,   1 atm)

  (VO)3(PO4)2    -148.95   -100.17   48.79  (VO)3(PO4)2
  Afwillite       -12.24     46.75   59.00  Ca3Si2O4(OH)6
  Akermanite       -2.76     41.58   44.35  Ca2MgSi2O7
  Al             -122.49     24.49  146.98  Al
  Al(g)          -172.18     24.49  196.68  Al
  Albite           -6.09     -3.59    2.50  NaAlSi3O8
  Albite_high      -7.37     -3.59    3.78  NaAlSi3O8
  Albite_low       -6.09     -3.59    2.50  NaAlSi3O8
  AlF3            -23.39    -40.77  -17.38  AlF3
  Amesite-14A       3.30     76.14   72.83  Mg4Al4Si2O10(OH)8
  Analcime         -3.69      2.13    5.83  Na.96Al.96Si2.04O6:H2O
  Analcime-dehy    -9.93      2.13   12.07  Na.96Al.96Si2.04O6
  Andalusite       -6.77      8.38   15.16  Al2SiO5
  Andradite         9.53     41.79   32.26  Ca3Fe2(SiO4)3
  Annite          -39.82    -11.29   28.53  KFe3AlSi3O10(OH)2
  Anorthite        -3.79     21.75   25.55  CaAl2(SiO4)2
  Antarcticite    -15.87    -11.77    4.09  CaCl2:6H2O
  Anthophyllite   -14.24     50.77   65.00  Mg7Si8O22(OH)2
  Antigorite       21.28    486.64  465.36  Mg48Si34O85(OH)62
  Arsenolite     -130.94   -150.52  -19.58  As2O3
  As             -100.11    -58.28   41.83  As
  As2O5          -115.27   -113.25    2.02  As2O5
  As4O6(cubi)    -261.73   -301.04  -39.31  As4O6
  As4O6(mono)    -261.49   -301.04  -39.55  As4O6
  Atacamite        -8.73      5.14   13.87  Cu4Cl2(OH)6
  Beidellite-Ca    -8.52     -3.57    4.95  Ca.165Al2.33Si3.67O10(OH)2
  Beidellite-H    -10.89     -6.87    4.02  H.33Al2.33Si3.67O10(OH)2
  Beidellite-K     -9.53     -4.83    4.70  K.33Al2.33Si3.67O10(OH)2
  Beidellite-Mg    -9.32     -4.42    4.90  Mg.165Al2.33Si3.67O10(OH)2
  Beidellite-Na    -8.98     -3.96    5.02  Na.33Al2.33Si3.67O10(OH)2
  Berlinite       -14.48    -22.05   -7.57  AlPO4
  Birnessite       22.06    -63.49  -85.55  Mn8O14:5H2O
  Bischofite      -21.34    -16.94    4.39  MgCl2:6H2O
  Bixbyite          6.78      5.24   -1.55  Mn2O3
  Boehmite          0.31      7.51    7.20  AlO2H
  Brucite          -1.10     14.84   15.94  Mg(OH)2
  Brushite        -16.10     -9.55    6.55  CaHPO4:2H2O
  Ca             -105.98     31.33  137.31  Ca
  Ca(g)          -130.68     31.33  162.01  Ca
  Ca-Al_Pyroxene   -6.40     28.40   34.80  CaAl2SiO6
  Ca2Al2O5:8H2O    -4.52     55.05   59.57  Ca2Al2O5:8H2O
  Ca2Cl2(OH)2:H2O -18.05      8.24   26.29  Ca2Cl2(OH)2:H2O
  Ca2V2O7          -6.78    -46.49  -39.71  Ca2V2O7
  Ca3(AsO4)2      -70.56    -53.22   17.35  Ca3(AsO4)2
  Ca3Al2O6        -35.42     75.06  110.49  Ca3Al2O6
  Ca3V2O8          -8.16    -26.48  -18.32  Ca3V2O8
  Ca4Al2Fe2O10    -40.25     96.75  137.00  Ca4Al2Fe2O10
  Ca4Al2O7:13H2O  -12.18     95.07  107.25  Ca4Al2O7:13H2O
  Ca4Al2O7:19H2O   -8.61     95.07  103.68  Ca4Al2O7:19H2O
  Ca4Cl2(OH)6:13H2O -20.06     48.26   68.33  Ca4Cl2(OH)6:13H2O
  CaAl2O4         -10.53     35.04   45.57  CaAl2O4
  CaAl2O4:10H2O    -2.96     35.04   37.99  CaAl2O4:10H2O
  CaAl4O7         -16.33     50.06   66.40  CaAl4O7
  Carnallite      -30.93    -26.66    4.27  KMgCl3:6H2O
  CaV2O6          -15.15    -66.51  -51.36  CaV2O6
  Celadonite       -5.12      1.96    7.08  KMgAlSi4O10(OH)2
  Chalcedony       -2.98     -6.64   -3.66  SiO2
  Chamosite-7A    -26.62      5.02   31.64  Fe2Al2SiO5(OH)4
  Chloromagnesite -38.27    -16.94   21.33  MgCl2
  Chromite        -30.87    -16.53   14.34  FeCr2O4
  Chrysocolla      -3.63      2.59    6.21  CuSiH4O5
  Chrysotile        0.88     31.25   30.36  Mg3Si2O5(OH)4
  Cl2(g)          -45.93    -43.11    2.83  Cl2
  Claudetite     -130.97   -150.52  -19.55  As2O3
  Clinochlore-14A   4.14     69.31   65.18  Mg5Al2Si3O10(OH)8
  Clinochlore-7A    0.80     69.31   68.51  Mg5Al2Si3O10(OH)8
  Clinoptilolite-Ca -28.16    -35.90   -7.75  Ca1.7335Al3.45Fe.017Si14.533O36:10.922H2O
  Clinoptilolite-dehy-Ca -63.03    -35.90   27.13  Ca1.7335Al3.45Fe.017Si14.533O36
  Clinoptilolite-dehy-K -72.81    -49.19   23.62  K3.467Al3.45Fe.017Si14.533O36
  Clinoptilolite-dehy-Na -67.23    -40.00   27.23  Na3.467Al3.45Fe.017Si14.533O36
  Clinoptilolite-hy-Ca -28.19    -35.90   -7.72  Ca1.7335Al3.45Fe.017Si14.533O36:11.645H2O
  Clinoptilolite-hy-K -37.82    -49.19  -11.36  K3.467Al3.45Fe.017Si14.533O36:7.499H2O
  Clinoptilolite-hy-Na -32.36    -40.00   -7.64  Na3.467Al3.45Fe.017Si14.533O36:10.877H2O
  Clinoptilolite-K -37.95    -49.19  -11.24  K3.467Al3.45Fe.017Si14.533O36:10.922H2O
  Clinoptilolite-Na -32.36    -40.00   -7.64  Na3.467Al3.45Fe.017Si14.533O36:10.922H2O
  Clinozoisite      0.94     42.64   41.70  Ca2Al3Si3O12(OH)
  Coesite          -3.51     -6.64   -3.13  SiO2
  Cordierite_anhyd -23.63     26.53   50.16  Mg2Al4Si5O18
  Cordierite_hydr -21.20     26.53   47.72  Mg2Al4Si5O18:H2O
  Corundum         -2.47     15.03   17.50  Al2O3
  Cr              -87.10      9.56   96.66  Cr
  CrCl3           -72.46    -55.10   17.36  CrCl3
  CrF3            -46.80    -55.71   -8.90  CrF3
  CrF4            -83.76    -96.20  -12.45  CrF4
  Cristobalite(alpha)  -3.25     -6.64   -3.39  SiO2
  Cristobalite(beta)  -3.68     -6.64   -2.96  SiO2
  CrO2            -12.95    -31.83  -18.87  CrO2
  CrO3            -29.01    -32.59   -3.58  CrO3
  Cronstedtite-7A -23.76     -8.33   15.43  Fe2Fe2SiO5(OH)4
  Cu              -10.29     20.55   30.84  Cu
  Cu(g)           -61.42     20.55   81.97  Cu
  Cu3(PO4)2       -19.20    -31.42  -12.22  Cu3(PO4)2
  Cu3(PO4)2:3H2O  -20.95    -31.42  -10.48  Cu3(PO4)2:3H2O
  CuCl2           -26.13    -22.55    3.57  CuCl2
  CuCr2O4         -21.02     -5.62   15.40  CuCr2O4
  CuF             -26.60    -19.52    7.08  CuF
  CuF2            -22.34    -22.96   -0.62  CuF2
  CuF2:2H2O       -18.41    -22.96   -4.55  CuF2:2H2O
  Cuprite          -5.02     -6.84   -1.82  Cu2O
  Daphnite-14A    -63.83    -13.32   50.51  Fe5AlAlSi3O10(OH)8
  Daphnite-7A     -67.16    -13.32   53.85  Fe5AlAlSi3O10(OH)8
  Delafossite       3.91     -2.58   -6.49  CuFeO2
  Diaspore          0.70      7.51    6.81  AlHO2
  Dicalcium_silicate  -3.08     33.38   36.46  Ca2SiO4
  Diopside          1.09     21.57   20.48  CaMgSi2O6
  Dioptase         -3.39      2.59    5.98  CuSiO2(OH)2
  Enstatite        -2.83      8.20   11.03  MgSiO3
  Epidote           4.37     35.96   31.59  Ca2FeAl2Si3O12OH
  Epidote-ord       4.38     35.96   31.58  FeCa2Al2(OH)(SiO4)3
  Eskolaite       -21.89    -31.22   -9.33  Cr2O3
  F2(g)           -98.02    -43.51   54.51  F2
  Fayalite        -28.60    -10.01   18.59  Fe2SiO4
  Fe              -48.24      9.64   57.88  Fe
  Fe(OH)2         -15.29     -1.68   13.60  Fe(OH)2
  Fe(OH)3          -4.54      0.84    5.38  Fe(OH)3
  FeF2            -31.28    -33.87   -2.59  FeF2
  FeF3            -28.14    -47.44  -19.30  FeF3
  FeO             -14.88     -1.68   13.20  FeO
  Ferrite-Ca        1.01     21.69   20.68  CaFe2O4
  Ferrite-Cu        1.27     10.91    9.63  CuFe2O4
  Ferrite-Dicalcium -13.64     41.70   55.34  Ca2Fe2O5
  Ferrite-Mg       -3.64     16.52   20.16  MgFe2O4
  Ferrite-Zn        0.77     11.77   11.01  ZnFe2O4
  Ferrosilite     -15.56     -8.32    7.23  FeSiO3
  FeV2O4         -323.90    -48.65  275.26  FeV2O4
  Fluorapatite     20.75     -4.70  -25.45  Ca5(PO4)3F
  Fluorite         -2.14    -12.17  -10.03  CaF2
  Forsterite       -4.14     23.04   27.18  Mg2SiO4
  Foshagite        -4.57     60.12   64.70  Ca4Si3O9(OH)2:0.5H2O
  Ga              -46.02     44.38   90.40  Ga
  Gehlenite        -6.31     48.41   54.72  Ca2Al2SiO7
  Gibbsite          0.09      7.51    7.42  Al(OH)3
  Gismondine        1.79     43.51   41.72  Ca2Al4Si4O16:9H2O
  Goethite          0.50      0.84    0.34  FeOOH
  Greenalite      -40.41    -18.33   22.07  Fe3Si2O5(OH)4
  Grossular         4.68     55.14   50.45  Ca3Al2(SiO4)3
  Gyrolite         -2.45     20.10   22.55  Ca2Si3O7(OH)2:1.5H2O
  H2(g)           -30.82    -33.93   -3.11  H2
  H2O(g)           -1.45     -0.00    1.45  H2O
  Halite           -8.64     -7.07    1.57  NaCl
  Hatrurite       -18.63     53.40   72.02  Ca3SiO5
  Hausmannite       8.47     17.79    9.33  Mn3O4
  HCl(g)          -21.97    -15.89    6.07  HCl
  Hedenbergite    -14.10      5.05   19.15  CaFe(SiO3)2
  Hematite          2.00      1.68   -0.32  Fe2O3
  Hercynite       -14.40     13.34   27.74  FeAl2O4
  Hillebrandite    -2.77     33.38   36.15  Ca2SiO3(OH)2:0.17H2O
  Hopeite         -18.18    -28.84  -10.66  Zn3(PO4)2:4H2O
  Hydrophilite    -23.26    -11.77   11.49  CaCl2
  Hydroxylapatite  15.21     11.39   -3.82  Ca5(OH)(PO4)3
  Ice              -0.16     -0.00    0.16  H2O
  Illite           -6.90      1.45    8.35  K0.6Mg0.25Al1.8Al0.5Si3.5O10(OH)2
  Jadeite          -5.00      3.05    8.05  NaAl(SiO3)2
  K               -57.94     11.83   69.78  K
  K(g)            -68.27     11.83   80.11  K
  K-Feldspar       -5.79     -6.24   -0.45  KAlSi3O8
  K2O             -70.38     12.35   82.73  K2O
  Kalsilite        -3.47      7.05   10.52  KAlSiO4
  Kaolinite        -4.51      1.74    6.25  Al2Si2O5(OH)4
  Karelianite     -56.42    -46.96    9.46  V2O3
  Katoite          -3.88     75.06   78.94  Ca3Al2H12O12
  KMgCl3          -47.50    -26.66   20.84  KMgCl3
  KMgCl3:2H2O     -40.39    -26.66   13.73  KMgCl3:2H2O
  Kyanite          -6.52      8.38   14.90  Al2SiO5
  Lammerite       -87.11    -85.56    1.55  Cu3(AsO4)2
  Larnite          -4.34     33.38   37.73  Ca2SiO4
  Laumontite       -4.48      8.47   12.95  CaAl2Si4O12:4H2O
  Lawrencite      -42.26    -33.47    8.79  FeCl2
  Lawsonite         0.40     21.75   21.36  CaAl2Si2O7(OH)2:H2O
  Lime            -11.96     20.01   31.98  CaO
  Lopezite        -35.63    -52.84  -17.21  K2Cr2O7
  Magnesiochromite -20.77     -0.01   20.77  MgCr2O4
  Magnetite        -9.76     -0.01    9.75  Fe3O4
  Manganite         2.78      2.62   -0.16  MnO(OH)
  Manganosite      -4.99     12.55   17.55  MnO
  Margarite        -2.55     36.78   39.33  CaAl4Si2O10(OH)2
  Maximum_Microcline  -5.79     -6.24   -0.45  KAlSi3O8
  Mayenite       -136.43    345.33  481.76  Ca12Al14O33
  Merwinite        -5.50     61.60   67.09  MgCa3(SiO4)2
  Mesolite          1.13     14.07   12.94  Na.676Ca.657Al1.99Si3.01O10:2.647H2O
  Mg              -94.07     26.16  120.24  Mg
  Mg(g)          -113.35     26.16  139.51  Mg
  Mg2V2O7         -25.93    -56.83  -30.90  Mg2V2O7
  MgCl2:2H2O      -29.39    -16.94   12.45  MgCl2:2H2O
  MgCl2:4H2O      -24.10    -16.94    7.16  MgCl2:4H2O
  MgCl2:H2O       -32.65    -16.94   15.70  MgCl2:H2O
  MgOHCl          -16.58     -1.05   15.53  MgOHCl
  MgV2O6          -25.83    -71.68  -45.85  MgV2O6
  Minnesotaite    -45.13    -31.62   13.51  Fe3Si4O10(OH)2
  Mn              -57.53     23.87   81.40  Mn
  Mn(OH)2(am)      -2.46     12.55   15.01  Mn(OH)2
  Mn(OH)3          -3.72      2.62    6.34  Mn(OH)3
  Mn3(PO4)2       -22.27    -21.46    0.82  Mn3(PO4)2
  MnCl2:2H2O      -23.13    -19.23    3.89  MnCl2:2H2O
  MnCl2:4H2O      -21.95    -19.23    2.72  MnCl2:4H2O
  MnCl2:H2O       -24.62    -19.23    5.39  MnCl2:H2O
  MnHPO4           -4.06    -17.00  -12.95  MnHPO4
  MnO2(gamma)       1.36    -14.77  -16.13  MnO2
  MnV2O6          -21.89    -73.97  -52.08  MnV2O6
  Molysite        -59.84    -46.84   13.00  FeCl3
  Monticellite     -0.72     28.21   28.93  CaMgSiO4
  Montmor-Ca       -7.86     -5.82    2.04  Ca.165Mg.33Al1.67Si4O10(OH)2
  Montmor-K        -8.80     -7.09    1.72  K.33Mg.33Al1.67Si4O10(OH)2
  Montmor-Mg       -8.59     -6.67    1.92  Mg.495Al1.67Si4O10(OH)2
  Montmor-Na       -8.26     -6.21    2.04  Na.33Mg.33Al1.67Si4O10(OH)2
  Mordenite       -12.26    -17.57   -5.31  Ca.2895Na.361Al.94Si5.06O12:3.468H2O
  Mordenite-dehy  -27.07    -17.57    9.50  Ca.2895Na.361Al.94Si5.06O12
  Muscovite        -3.92      8.79   12.70  KAl3Si3O10(OH)2
  Na              -51.72     14.48   66.21  Na
  Na(g)           -64.88     14.48   79.37  Na
  Na2Cr2O7        -37.42    -47.54  -10.11  Na2Cr2O7
  Na2CrO4         -17.78    -14.94    2.84  Na2CrO4
  Na2O            -48.69     17.65   66.34  Na2O
  Na2SiO3         -10.94     11.01   21.95  Na2SiO3
  Na4SiO4         -40.94     28.66   69.60  Na4SiO4
  Na6Si2O7        -60.43     39.66  100.09  Na6Si2O7
  NaFeO2           -9.72      9.66   19.39  NaFeO2
  Nantokite       -12.68    -19.32   -6.64  CuCl
  Natrolite        -5.07     12.75   17.82  Na2Al2Si3O10:2H2O
  Natrosilite     -13.54      4.36   17.91  Na2Si2O5
  Nepheline        -3.64      9.70   13.34  NaAlSiO4
  Niter            -9.47     -9.58   -0.12  KNO3
  NO2(g)          -18.13    -10.10    8.04  NO2
  Nontronite-Ca    -5.07    -16.92  -11.85  Ca.165Fe2Al.33Si3.67H2O12
  Nontronite-H     -7.43    -20.22  -12.78  H.33Fe2Al.33Si3.67H2O12
  Nontronite-K     -6.09    -18.18  -12.09  K.33Fe2Al.33Si3.67H2O12
  Nontronite-Mg    -5.87    -17.77  -11.90  Mg.165Fe2Al.33Si3.67H2O12
  Nontronite-Na    -5.54    -17.31  -11.77  Na.33Fe2Al.33Si3.67H2O12
  O2(g)           -19.71    -22.64   -2.93  O2
  Okenite          -3.53      6.73   10.25  CaSi2O4(OH)2:H2O
  Oxychloride-Mg  -12.04     13.79   25.83  Mg2Cl(OH)3:4H2O
  P              -130.70     -1.26  129.45  P
  Paragonite       -5.10     11.44   16.54  NaAl3Si3O10(OH)2
  Pargasite        -8.10     90.91   99.01  NaCa2Al3Mg4Si6O22(OH)2
  Periclase        -6.02     14.84   20.87  MgO
  Phlogopite        1.94     38.29   36.35  KAlMg3Si3O10(OH)2
  Portlandite      -2.14     20.01   22.15  Ca(OH)2
  Prehnite          3.29     35.12   31.84  Ca2Al2Si3O10(OH)2
  Pseudowollastonite  -0.35     13.37   13.72  CaSiO3
  Pyrolusite        2.64    -14.77  -17.41  MnO2
  Pyrophyllite    -11.52    -11.54   -0.02  Al2Si4O10(OH)2
  Quartz           -2.72     -6.64   -3.93  SiO2
  Rankinite        -4.14     46.75   50.90  Ca3Si2O7
  Rhodonite        -3.58      5.91    9.49  MnSiO3
  Ripidolite-14A  -22.76     36.26   59.02  Mg3Fe2Al2Si3O10(OH)8
  Ripidolite-7A   -26.10     36.26   62.36  Mg3Fe2Al2Si3O10(OH)8
  Sanidine_high    -6.95     -6.24    0.71  KAlSi3O8
  Saponite-Ca       0.43     25.93   25.51  Ca.165Mg3Al.33Si3.67O10(OH)2
  Saponite-H       -1.94     22.63   24.57  H.33Mg3Al.33Si3.67O10(OH)2
  Saponite-K       -0.59     24.67   25.26  K.33Mg3Al.33Si3.67O10(OH)2
  Saponite-Mg      -0.37     25.08   25.46  Mg3.165Al.33Si3.67O10(OH)2
  Saponite-Na      -0.04     25.54   25.58  Na.33Mg3Al.33Si3.67O10(OH)2
  Scacchite       -27.74    -19.23    8.51  MnCl2
  Scolecite        -0.01     15.11   15.12  CaAl2Si3O10:3H2O
  Sellaite         -7.86    -17.34   -9.49  MgF2
  Sepiolite       -10.22     19.52   29.74  Mg4Si6O15(OH)2:6H2O
  Shcherbinaite   -28.07    -29.62   -1.56  V2O5
  Si             -130.21     16.00  146.21  Si
  Si(g)          -199.92     16.00  215.91  Si
  SiF4(g)         -55.68    -71.02  -15.34  SiF4
  Sillimanite      -7.13      8.38   15.51  Al2SiO5
  SiO2(am)         -3.96     -6.64   -2.68  SiO2
  Smectite-high-Fe-Mg -11.50      5.16   16.66  Ca.025Na.1K.2Fe.5Fe.2Mg1.15Al1.25Si3.5H2O12
  Smectite-low-Fe-Mg -10.00      0.45   10.45  Ca.02Na.15K.2Fe.29Fe.16Mg.9Al1.25Si3.75H2O12
  Spinel           -6.52     29.87   36.39  Al2MgO4
  Stilbite         -7.85     -7.29    0.56  Ca1.019Na.136K.006Al2.18Si6.82O18:7.33H2O
  Strengite       -17.21    -28.72  -11.51  FePO4:2H2O
  Sylvite         -10.60     -9.72    0.88  KCl
  Tachyhydrite    -62.80    -45.66   17.14  Mg2CaCl6:12H2O
  Talc             -2.57     17.96   20.53  Mg3Si4O10(OH)2
  Tarapacaite     -19.88    -20.24   -0.36  K2CrO4
  Tenorite          1.78      9.23    7.45  CuO
  Tephroite        -4.07     18.47   22.53  Mn2SiO4
  Tobermorite-11A  -4.30     60.21   64.51  Ca5Si6H11O22.5
  Tobermorite-14A  -2.69     60.21   62.90  Ca5Si6H21O27.5
  Tobermorite-9A   -7.64     60.21   67.85  Ca5Si6H6O20
  Todorokite       19.45    -26.37  -45.82  Mn7O12:3H2O
  Tremolite         1.42     61.11   59.69  Ca2Mg5Si8O22(OH)2
  Tridymite        -2.90     -6.64   -3.74  SiO2
  V              -111.36     -6.50  104.86  V
  V2O4            -35.56    -27.37    8.20  V2O4
  V3O5            -73.41    -60.65   12.76  V3O5
  V4O7            -92.26    -74.33   17.93  V4O7
  Vivianite       -59.44    -64.17   -4.72  Fe3(PO4)2:8H2O
  Wairakite        -8.72      8.47   17.19  CaAl2Si4O10(OH)4
  Whitlockite       5.61      0.92   -4.69  Ca3(PO4)2
  Wollastonite     -0.12     13.37   13.49  CaSiO3
  Wustite         -13.42     -1.33   12.09  Fe.947O
  Xonotlite       -10.01     80.22   90.24  Ca6Si6O17(OH)2
  Zincite          -0.83     10.09   10.93  ZnO
  Zn              -46.05     21.41   67.46  Zn
  Zn(ClO4)2:6H2O -148.99   -143.33    5.66  Zn(ClO4)2:6H2O
  Zn(g)           -62.27     21.41   83.68  Zn
  Zn(NO3)2:6H2O   -24.90    -21.43    3.48  Zn(NO3)2:6H2O
  Zn(OH)2(beta)    -1.59     10.09   11.68  Zn(OH)2
  Zn(OH)2(epsilon)  -1.32     10.09   11.41  Zn(OH)2
  Zn(OH)2(gamma)   -1.79     10.09   11.88  Zn(OH)2
  Zn2(OH)3Cl      -11.00      4.29   15.29  Zn2(OH)3Cl
  Zn2SiO4           0.06     13.54   13.48  Zn2SiO4
  Zn3(AsO4)2      -92.29    -82.97    9.31  Zn3(AsO4)2
  Zn5(NO3)2(OH)8  -23.72     18.95   42.67  Zn5(NO3)2(OH)8
  ZnCl2           -28.55    -21.69    6.86  ZnCl2
  ZnCr2O4         -12.00     -4.76    7.24  ZnCr2O4
  ZnF2            -21.41    -22.09   -0.68  ZnF2
  Zoisite           0.90     42.64   41.73  Ca2Al3(SiO4)3OH

**For a gas, SI = log10(fugacity). Fugacity = pressure * phi / 1 atm.
  For ideal gases, phi = 1.

------------------
End of simulation.
------------------

------------------------------------
Reading input data for simulation 3.
------------------------------------

-------------------------------
End of Run after 0.738 Seconds.
-------------------------------

