   Input file: C:\Users\jorgeft\Desktop\master thesis\selected_values\simulation7.pqi
  Output file: C:\Users\jorgeft\Desktop\master thesis\selected_values\simulation7.pqo
Database file: C:\Program Files (x86)\USGS\Phreeqc Interactive 3.4.0-12927\database\phreeqc.dat

------------------
Reading data base.
------------------

	SOLUTION_MASTER_SPECIES
	SOLUTION_SPECIES
	PHASES
	EXCHANGE_MASTER_SPECIES
	EXCHANGE_SPECIES
	SURFACE_MASTER_SPECIES
	SURFACE_SPECIES
	RATES
	END
------------------------------------
Reading input data for simulation 1.
------------------------------------

	DATABASE C:\Program Files (x86)\USGS\Phreeqc Interactive 3.4.0-12927\database\phreeqc.dat
	USER_PUNCH 1
	headings Sample_Ref	EC_(uS/cm) TDS_g/kg-solution alk_mg/L
	start
	10 PUNCH Description
	25 PUNCH SC
	32 PUNCH (RHO * SOLN_VOL - TOT("water")) * 1000 / (RHO * SOLN_VOL)
	40 PUNCH alk * ((50.05) / 1000)
	end
	SELECTED_OUTPUT 1
	file simulation7allowing_precipitation_secondary_mineralswithphreeqc.txt
	charge_balance
	ionic_strength
	temperature
	percent_error
	alkalinity
	equilibrium_phases Gibbsite 
	equilibrium_phases Goethite 
	equilibrium_phases Pyrolusite 
	equilibrium_phases Kaolinite 
	equilibrium_phases Calcite 
	equilibrium_phases Dolomite
	equilibrium_phases Aragonite 
	equilibrium_phases Rhodochrosite
	equilibrium_phases Siderite 
	END
------------------
End of simulation.
------------------

------------------------------------
Reading input data for simulation 2.
------------------------------------

	SOLUTION_SPREAD
	units mg/l
	Number 	Description	pH	pe	Temp	Na	K	Mg	Ca	F	Cl	S(+6)	Br	N(+5)	P(5) 	Al	V	Cr	Mn	Fe	Cu	Zn	Ga	As	Si
	1	1WBR1	11.98 charge	4	25.6	4.466E+02	1.016E+00	2.989E-04	7.263E+01	1.176E+00	3.264E+00	0.000E+00	0.000E+00	7.149E-01	0.000E+00	1.345E+02	5.041E-01	5.775E-02	6.179E-03	3.164E-05	1.263E-01	7.538E-02	1.853E-01	1.191E-02	2.13E-01
	2	1WBRA2	11.76 charge	4	25.6	4.305E+02	3.910E+00	2.989E-04	5.956E+01	5.423E-01	9.857E+00	0.000E+00	0.000E+00	7.416E-01	0.000E+00	1.008E+02	8.033E-01	8.434E-02	4.598E-05	7.710E-01	3.650E-02	1.114E-02	1.549E-01	3.148E-02	1.26E+01
	3	1WBRS1	11.93 charge	4	29.3	4.479E+02	9.758E-01	2.989E-04	5.678E+01	1.489E+00	3.110E+00	0.000E+00	0.000E+00	3.200E+00	0.000E+00	1.303E+02	8.851E-01	4.984E-02	4.598E-05	2.602E-02	6.330E-03	9.077E-03	1.927E-01	3.106E-02	1.69E+01
	4	1WBRG2 	10.92 charge	4	30.2	7.317E+02	1.526E+00	3.778E-02	5.092E+02	4.666E-01	4.188E+00	7.585E+00	0.000E+00	7.131E-01	0.000E+00	2.312E-01	1.404E-01	4.518E-02	4.598E-05	2.473E-01	2.249E-02	1.791E-02	2.140E-02	3.145E-05	1.05E+00
	5	2WBR1	11.82 charge	4	29.8	2.411E+02	5.526E-01	2.989E-04	3.652E+01	6.388E-01	2.062E+00	0.000E+00	0.000E+00	7.031E-01	0.000E+00	6.291E+01	3.541E-01	2.387E-02	4.598E-05	3.164E-05	4.628E-03	9.593E-03	5.921E-02	9.287E-03	2.00E+00
	6	2WBRA1	11.54 charge	4	30.1	2.695E+02	2.429E+00	2.989E-04	4.438E+01	3.151E+00	2.970E+00	0.000E+00	3.374E+00	7.437E-01	0.000E+00	6.661E+01	5.566E-01	4.852E-02	6.018E-03	2.293E+00	9.681E-02	5.025E-02	6.954E-02	2.424E-02	8.96E+00
	7	2WBRS1 	11.76 charge	4	30.1	2.222E+02	6.034E-01	3.074E-02	4.074E+01	6.606E-01	2.205E+00	0.000E+00	0.000E+00	7.062E-01	0.000E+00	5.003E+01	5.876E-01	1.405E-02	4.598E-05	8.930E-01	4.000E-03	6.701E-03	4.195E-02	2.754E-02	1.08E+01
	8	2WBRG1	10.94 charge	4	29.6	2.856E+02	6.873E-01	3.599E-02	4.981E+02	5.377E-01	2.058E+00	5.151E+00	0.000E+00	7.048E-01	0.000E+00	8.083E-02	1.400E-01	1.164E-02	4.598E-05	2.619E-01	6.767E-03	1.588E-02	1.259E-02	3.145E-05	1.03E+01
	9	3WBR2	11.69 charge	4	30.2	1.558E+02	4.365E-01	2.989E-04	3.865E+01	3.706E-01	1.772E+00	0.000E+00	0.000E+00	7.677E-01	0.000E+00	3.401E+01	3.290E-01	2.505E-02	6.990E-03	6.816E-02	1.293E-01	7.041E-02	1.835E-02	3.145E-05	1.15E+01
	10	3WBRA2	11.33 charge	4	29.6	1.674E+02	1.425E+00	4.053E-02	3.938E+01	4.710E-01	2.153E+00	0.000E+00	3.506E+00	9.940E-01	0.000E+00	3.634E+01	3.900E-01	4.029E-02	6.621E-03	1.002E+01	1.029E-02	2.066E-02	3.030E-02	1.754E-02	1.23E+01
	11	3WBRS2 	11.61 charge	4	31.4	1.565E+02	4.925E-01	5.958E-02	4.246E+01	3.538E-01	2.560E+00	0.000E+00	0.000E+00	7.920E-01	0.000E+00	3.705E+01	3.459E-01	2.246E-02	4.598E-05	3.425E+00	7.798E-03	1.496E-02	1.904E-02	1.686E-02	1.51E-01
	12	3WBRG3 	11.41 charge	4	29.7	1.115E+02	3.457E-01	2.989E-04	9.962E+01	4.344E-01	9.533E+00	5.072E-01	0.000E+00	8.021E-01	1.710E+00	4.304E+00	1.301E-01	4.955E-03	4.598E-05	4.373E-02	4.805E-03	1.232E-02	2.319E-02	3.145E-05	2.24E+01
	13	4WBR2	11.60 charge	4	29.9	1.208E+02	3.831E-01	2.989E-04	2.827E+01	3.398E-01	1.814E+00	0.000E+00	0.000E+00	7.682E-01	0.000E+00	2.532E+01	2.740E-01	6.597E-03	4.823E-03	1.469E-01	9.543E-02	5.282E-02	1.028E-02	9.153E-03	2.50E+01
	14	4WBRA2	11.29 charge	4	29.3	1.159E+02	1.093E+00	1.645E-01	1.577E+01	3.901E-01	2.051E+00	0.000E+00	3.438E+00	7.978E-01	0.000E+00	2.540E+01	2.494E-01	4.258E-02	1.708E-02	1.755E+01	3.138E-02	4.212E-02	2.211E-02	1.740E-02	3.29E+00
	15	4WBRS1 	11.35 charge	4	30.7	1.232E+02	3.781E-01	2.989E-04	2.660E+01	2.959E-01	1.813E+00	0.000E+00	0.000E+00	7.700E-01	0.000E+00	2.600E+01	2.121E-01	1.242E-02	4.598E-05	3.394E+00	2.782E-02	2.112E-02	9.907E-03	9.741E-03	2.11E+01
	16	4WBRG2 	11.55 charge	4	28.1	7.201E+01	2.514E-01	2.989E-04	5.905E+01	2.747E-01	1.525E+00	0.000E+00	0.000E+00	7.647E-01	2.655E+00	1.039E+01	9.965E-02	3.725E-05	6.581E-03	3.164E-05	9.460E-02	6.479E-02	1.967E-02	3.145E-05	1.61E+01
	17	5WBR2	11.52 charge	4	30.4	1.055E+02	3.471E-01	2.989E-04	1.803E+01	3.897E-01	1.605E+00	0.000E+00	3.256E+00	0.000E+00	0.000E+00	2.237E+01	2.348E-01	5.353E-03	4.598E-05	4.892E-01	3.896E-03	9.882E-03	7.873E-03	1.627E-02	2.07E+01
	18	5WBRA2	11.23 charge	4	30.2	9.749E+01	2.800E+00	1.053E-01	1.603E+01	4.317E-01	1.780E+00	0.000E+00	3.279E+00	7.792E-01	0.000E+00	2.156E+01	1.809E-01	4.231E-02	1.700E-02	1.932E+01	9.744E-03	1.216E-01	1.988E-02	1.154E-02	6.74E+00
	19	5WBRS2 	11.32 charge	4	30.9	1.133E+02	2.909E-01	4.357E-02	1.461E+01	4.898E-01	1.821E+00	0.000E+00	3.389E+00	7.768E-01	0.000E+00	2.677E+01	1.508E-01	1.464E-02	4.598E-05	6.748E+00	4.460E-03	2.069E-02	1.113E-02	8.853E-03	2.53E+00
	20	5WBRG2 	11.47 charge	4	30.3	5.698E+01	2.175E-01	2.989E-04	7.428E+01	4.987E-01	1.470E+00	0.000E+00	0.000E+00	7.947E-01	3.935E+00	1.313E+01	7.382E-02	3.725E-05	4.598E-05	3.164E-05	4.835E-03	7.875E-03	1.513E-02	3.145E-05	6.90E-01
	EQUILIBRIUM_PHASES 1-20 
	CO2(g) -3.5 10 
	Gibbsite 0.0 0.0 
	Goethite 0.0 0.0 
	Pyrolusite 0.0 0.0 
	Kaolinite 0.0 0.0 
	Calcite 0.0 0.0 
	Dolomite 0.0 0.0
	Aragonite 0.0 0.0
	Rhodochrosite 0.0 0.0
	Siderite 0.0 0.0  
	END
WARNING: Could not find element in database, As.
	Concentration is set to zero.
WARNING: Could not find element in database, Cr.
	Concentration is set to zero.
WARNING: Could not find element in database, Ga.
	Concentration is set to zero.
WARNING: Could not find element in database, P(5).
	Concentration is set to zero.
WARNING: Could not find element in database, V.
	Concentration is set to zero.
WARNING: Could not find element in database, As.
	Concentration is set to zero.
WARNING: Could not find element in database, Cr.
	Concentration is set to zero.
WARNING: Could not find element in database, Ga.
	Concentration is set to zero.
WARNING: Could not find element in database, P(5).
	Concentration is set to zero.
WARNING: Could not find element in database, V.
	Concentration is set to zero.
WARNING: Could not find element in database, As.
	Concentration is set to zero.
WARNING: Could not find element in database, Cr.
	Concentration is set to zero.
WARNING: Could not find element in database, Ga.
	Concentration is set to zero.
WARNING: Could not find element in database, P(5).
	Concentration is set to zero.
WARNING: Could not find element in database, V.
	Concentration is set to zero.
WARNING: Could not find element in database, As.
	Concentration is set to zero.
WARNING: Could not find element in database, Cr.
	Concentration is set to zero.
WARNING: Could not find element in database, Ga.
	Concentration is set to zero.
WARNING: Could not find element in database, P(5).
	Concentration is set to zero.
WARNING: Could not find element in database, V.
	Concentration is set to zero.
WARNING: Could not find element in database, As.
	Concentration is set to zero.
WARNING: Could not find element in database, Cr.
	Concentration is set to zero.
WARNING: Could not find element in database, Ga.
	Concentration is set to zero.
WARNING: Could not find element in database, P(5).
	Concentration is set to zero.
WARNING: Could not find element in database, V.
	Concentration is set to zero.
WARNING: Could not find element in database, As.
	Concentration is set to zero.
WARNING: Could not find element in database, Cr.
	Concentration is set to zero.
WARNING: Could not find element in database, Ga.
	Concentration is set to zero.
WARNING: Could not find element in database, P(5).
	Concentration is set to zero.
WARNING: Could not find element in database, V.
	Concentration is set to zero.
WARNING: Could not find element in database, As.
	Concentration is set to zero.
WARNING: Could not find element in database, Cr.
	Concentration is set to zero.
WARNING: Could not find element in database, Ga.
	Concentration is set to zero.
WARNING: Could not find element in database, P(5).
	Concentration is set to zero.
WARNING: Could not find element in database, V.
	Concentration is set to zero.
WARNING: Could not find element in database, As.
	Concentration is set to zero.
WARNING: Could not find element in database, Cr.
	Concentration is set to zero.
WARNING: Could not find element in database, Ga.
	Concentration is set to zero.
WARNING: Could not find element in database, P(5).
	Concentration is set to zero.
WARNING: Could not find element in database, V.
	Concentration is set to zero.
WARNING: Could not find element in database, As.
	Concentration is set to zero.
WARNING: Could not find element in database, Cr.
	Concentration is set to zero.
WARNING: Could not find element in database, Ga.
	Concentration is set to zero.
WARNING: Could not find element in database, P(5).
	Concentration is set to zero.
WARNING: Could not find element in database, V.
	Concentration is set to zero.
WARNING: Could not find element in database, As.
	Concentration is set to zero.
WARNING: Could not find element in database, Cr.
	Concentration is set to zero.
WARNING: Could not find element in database, Ga.
	Concentration is set to zero.
WARNING: Could not find element in database, P(5).
	Concentration is set to zero.
WARNING: Could not find element in database, V.
	Concentration is set to zero.
WARNING: Could not find element in database, As.
	Concentration is set to zero.
WARNING: Could not find element in database, Cr.
	Concentration is set to zero.
WARNING: Could not find element in database, Ga.
	Concentration is set to zero.
WARNING: Could not find element in database, P(5).
	Concentration is set to zero.
WARNING: Could not find element in database, V.
	Concentration is set to zero.
WARNING: Could not find element in database, As.
	Concentration is set to zero.
WARNING: Could not find element in database, Cr.
	Concentration is set to zero.
WARNING: Could not find element in database, Ga.
	Concentration is set to zero.
WARNING: Could not find element in database, P(5).
	Concentration is set to zero.
WARNING: Could not find element in database, V.
	Concentration is set to zero.
WARNING: Could not find element in database, As.
	Concentration is set to zero.
WARNING: Could not find element in database, Cr.
	Concentration is set to zero.
WARNING: Could not find element in database, Ga.
	Concentration is set to zero.
WARNING: Could not find element in database, P(5).
	Concentration is set to zero.
WARNING: Could not find element in database, V.
	Concentration is set to zero.
WARNING: Could not find element in database, As.
	Concentration is set to zero.
WARNING: Could not find element in database, Cr.
	Concentration is set to zero.
WARNING: Could not find element in database, Ga.
	Concentration is set to zero.
WARNING: Could not find element in database, P(5).
	Concentration is set to zero.
WARNING: Could not find element in database, V.
	Concentration is set to zero.
WARNING: Could not find element in database, As.
	Concentration is set to zero.
WARNING: Could not find element in database, Cr.
	Concentration is set to zero.
WARNING: Could not find element in database, Ga.
	Concentration is set to zero.
WARNING: Could not find element in database, P(5).
	Concentration is set to zero.
WARNING: Could not find element in database, V.
	Concentration is set to zero.
WARNING: Could not find element in database, As.
	Concentration is set to zero.
WARNING: Could not find element in database, Cr.
	Concentration is set to zero.
WARNING: Could not find element in database, Ga.
	Concentration is set to zero.
WARNING: Could not find element in database, P(5).
	Concentration is set to zero.
WARNING: Could not find element in database, V.
	Concentration is set to zero.
WARNING: Could not find element in database, As.
	Concentration is set to zero.
WARNING: Could not find element in database, Cr.
	Concentration is set to zero.
WARNING: Could not find element in database, Ga.
	Concentration is set to zero.
WARNING: Could not find element in database, P(5).
	Concentration is set to zero.
WARNING: Could not find element in database, V.
	Concentration is set to zero.
WARNING: Could not find element in database, As.
	Concentration is set to zero.
WARNING: Could not find element in database, Cr.
	Concentration is set to zero.
WARNING: Could not find element in database, Ga.
	Concentration is set to zero.
WARNING: Could not find element in database, P(5).
	Concentration is set to zero.
WARNING: Could not find element in database, V.
	Concentration is set to zero.
WARNING: Could not find element in database, As.
	Concentration is set to zero.
WARNING: Could not find element in database, Cr.
	Concentration is set to zero.
WARNING: Could not find element in database, Ga.
	Concentration is set to zero.
WARNING: Could not find element in database, P(5).
	Concentration is set to zero.
WARNING: Could not find element in database, V.
	Concentration is set to zero.
WARNING: Could not find element in database, As.
	Concentration is set to zero.
WARNING: Could not find element in database, Cr.
	Concentration is set to zero.
WARNING: Could not find element in database, Ga.
	Concentration is set to zero.
WARNING: Could not find element in database, P(5).
	Concentration is set to zero.
WARNING: Could not find element in database, V.
	Concentration is set to zero.
-------------------------------------------
Beginning of initial solution calculations.
-------------------------------------------

Initial solution 1.	 1WBR1 

-----------------------------Solution composition------------------------------

	Elements           Molality       Moles

	Al                4.988e-03   4.988e-03
	Ca                1.813e-03   1.813e-03
	Cl                9.213e-05   9.213e-05
	Cu                1.989e-06   1.989e-06
	F                 6.194e-05   6.194e-05
	Fe                5.669e-10   5.669e-10
	K                 2.600e-05   2.600e-05
	Mg                1.230e-08   1.230e-08
	Mn                1.125e-07   1.125e-07
	N(5)              5.107e-05   5.107e-05
	Na                1.944e-02   1.944e-02
	Si                3.547e-06   3.547e-06
	Zn                1.154e-06   1.154e-06

----------------------------Description of solution----------------------------

                                       pH  =  12.154      Charge balance
                                       pe  =   4.000    
      Specific Conductance (µS/cm,  26°C)  = 4434
                          Density (g/cm³)  =   0.99831
                               Volume (L)  =   1.00300
                        Activity of water  =   0.999
                 Ionic strength (mol/kgw)  =   2.442e-02
                       Mass of water (kg)  =   1.000e+00
                 Total alkalinity (eq/kg)  =   3.786e-02
                    Total carbon (mol/kg)  =   0.000e+00
                       Total CO2 (mol/kg)  =   0.000e+00
                         Temperature (°C)  =  25.60
                  Electrical balance (eq)  =  -1.934e-16
 Percent error, 100*(Cat-|An|)/(Cat+|An|)  =  -0.00
                               Iterations  =  10
                                  Total H  = 1.110503e+02
                                  Total O  = 5.554424e+01

----------------------------Distribution of species----------------------------

                                               Log       Log       Log    mole V
   Species          Molality    Activity  Molality  Activity     Gamma   cm³/mol

   OH-             1.765e-02   1.510e-02    -1.753    -1.821    -0.068     -3.94
   H+              7.947e-13   7.008e-13   -12.100   -12.154    -0.055      0.00
   H2O             5.551e+01   9.992e-01     1.744    -0.000     0.000     18.07
Al            4.988e-03
   Al(OH)4-        4.988e-03   4.297e-03    -2.302    -2.367    -0.065     (0)  
   Al(OH)3         1.577e-09   1.586e-09    -8.802    -8.800     0.002     (0)  
   Al(OH)2+        8.342e-15   7.224e-15   -14.079   -14.141    -0.062     (0)  
   AlOH+2          1.091e-21   6.136e-22   -20.962   -21.212    -0.250    -27.43
   AlF2+           6.711e-25   5.812e-25   -24.173   -24.236    -0.062     (0)  
   AlF3            3.828e-25   3.849e-25   -24.417   -24.415     0.002     (0)  
   AlF+2           3.909e-26   2.199e-26   -25.408   -25.658    -0.250     (0)  
   AlF4-           9.355e-27   8.058e-27   -26.029   -26.094    -0.065     (0)  
   Al+3            1.291e-28   4.167e-29   -27.889   -28.380    -0.491    -41.66
Ca            1.813e-03
   Ca+2            1.570e-03   8.833e-04    -2.804    -3.054    -0.250    -17.77
   CaOH+           2.429e-04   2.090e-04    -3.615    -3.680    -0.065     (0)  
Cl            9.213e-05
   Cl-             9.213e-05   7.899e-05    -4.036    -4.102    -0.067     18.21
   MnCl+           4.214e-13   3.641e-13   -12.375   -12.439    -0.063     -2.86
   ZnOHCl          2.066e-14   2.078e-14   -13.685   -13.682     0.002     (0)  
   MnCl2           1.248e-17   1.255e-17   -16.904   -16.901     0.002     85.16
   ZnCl+           1.416e-18   1.216e-18   -17.849   -17.915    -0.066    -13.31
   CuCl+           1.048e-20   9.002e-21   -19.979   -20.046    -0.066      0.60
   CuCl2-          4.979e-21   4.275e-21   -20.303   -20.369    -0.066     (0)  
   MnCl3-          3.161e-22   2.731e-22   -21.500   -21.564    -0.063     43.50
   ZnCl2           1.003e-22   1.008e-22   -21.999   -21.996     0.002    100.86
   CuCl3-2         9.626e-25   5.364e-25   -24.017   -24.270    -0.254     (0)  
   CuCl2           3.822e-25   3.843e-25   -24.418   -24.415     0.002     31.70
   ZnCl3-          1.044e-26   8.968e-27   -25.981   -26.047    -0.066     16.97
   ZnCl4-2         6.401e-31   3.567e-31   -30.194   -30.448    -0.254    145.79
   CuCl3-          1.268e-31   1.089e-31   -30.897   -30.963    -0.066     (0)  
   FeCl+           5.447e-32   4.687e-32   -31.264   -31.329    -0.065     (0)  
   CuCl4-2         7.841e-38   4.369e-38   -37.106   -37.360    -0.254     (0)  
   FeCl+2          1.851e-39   1.031e-39   -38.733   -38.987    -0.254     (0)  
   FeCl2+          0.000e+00   0.000e+00   -42.384   -42.447    -0.063     (0)  
   FeCl3           0.000e+00   0.000e+00   -47.552   -47.550     0.002     (0)  
Cu(1)         2.559e-18
   Cu+             2.554e-18   2.170e-18   -17.593   -17.664    -0.071     (0)  
   CuCl2-          4.979e-21   4.275e-21   -20.303   -20.369    -0.066     (0)  
   CuCl3-2         9.626e-25   5.364e-25   -24.017   -24.270    -0.254     (0)  
Cu(2)         1.989e-06
   Cu(OH)2         1.737e-06   1.746e-06    -5.760    -5.758     0.002     (0)  
   Cu(OH)3-        1.744e-07   1.500e-07    -6.759    -6.824    -0.065     (0)  
   Cu(OH)4-2       7.786e-08   4.268e-08    -7.109    -7.370    -0.261     (0)  
   CuOH+           6.828e-13   5.863e-13   -12.166   -12.232    -0.066     (0)  
   Cu+2            7.211e-17   4.112e-17   -16.142   -16.386    -0.244    -26.27
   Cu2(OH)2+2      2.911e-19   1.596e-19   -18.536   -18.797    -0.261     (0)  
   CuF+            4.597e-20   3.956e-20   -19.338   -19.403    -0.065     (0)  
   CuCl+           1.048e-20   9.002e-21   -19.979   -20.046    -0.066      0.60
   CuCl2           3.822e-25   3.843e-25   -24.418   -24.415     0.002     31.70
   CuCl3-          1.268e-31   1.089e-31   -30.897   -30.963    -0.066     (0)  
   CuCl4-2         7.841e-38   4.369e-38   -37.106   -37.360    -0.254     (0)  
F             6.194e-05
   F-              6.144e-05   5.258e-05    -4.212    -4.279    -0.068     -1.19
   NaF             5.047e-07   5.076e-07    -6.297    -6.295     0.002      7.28
   MgF+            6.247e-12   5.381e-12   -11.204   -11.269    -0.065    -10.48
   MnF+            4.764e-13   4.116e-13   -12.322   -12.386    -0.063     (0)  
   HF              5.555e-14   5.586e-14   -13.255   -13.253     0.002     12.53
   HF2-            1.316e-17   1.132e-17   -16.881   -16.946    -0.065     22.21
   ZnF+            4.845e-18   4.169e-18   -17.315   -17.380    -0.065     (0)  
   CuF+            4.597e-20   3.956e-20   -19.338   -19.403    -0.065     (0)  
   AlF2+           6.711e-25   5.812e-25   -24.173   -24.236    -0.062     (0)  
   AlF3            3.828e-25   3.849e-25   -24.417   -24.415     0.002     (0)  
   AlF+2           3.909e-26   2.199e-26   -25.408   -25.658    -0.250     (0)  
   AlF4-           9.355e-27   8.058e-27   -26.029   -26.094    -0.065     (0)  
   FeF+            2.627e-31   2.260e-31   -30.581   -30.646    -0.065     (0)  
   FeF2+           8.705e-35   7.521e-35   -34.060   -34.124    -0.063     (0)  
   FeF+2           6.402e-35   3.568e-35   -34.194   -34.448    -0.254     (0)  
   FeF3            6.245e-36   6.280e-36   -35.204   -35.202     0.002     (0)  
   SiF6-2          0.000e+00   0.000e+00   -51.793   -52.047    -0.254     43.08
Fe(2)         1.626e-22
   Fe(OH)3-        1.598e-22   1.381e-22   -21.796   -21.860    -0.063     (0)  
   Fe(OH)2         2.577e-24   2.591e-24   -23.589   -23.586     0.002     (0)  
   FeOH+           2.346e-25   2.027e-25   -24.630   -24.693    -0.063     (0)  
   Fe+2            7.539e-28   4.299e-28   -27.123   -27.367    -0.244    -21.75
   FeF+            2.627e-31   2.260e-31   -30.581   -30.646    -0.065     (0)  
   FeCl+           5.447e-32   4.687e-32   -31.264   -31.329    -0.065     (0)  
Fe(3)         5.669e-10
   Fe(OH)4-        5.666e-10   4.907e-10    -9.247    -9.309    -0.062     (0)  
   Fe(OH)3         3.663e-13   3.684e-13   -12.436   -12.434     0.002     (0)  
   Fe(OH)2+        2.256e-18   1.954e-18   -17.647   -17.709    -0.062     (0)  
   FeOH+2          7.260e-27   4.046e-27   -26.139   -26.393    -0.254     (0)  
   FeF2+           8.705e-35   7.521e-35   -34.060   -34.124    -0.063     (0)  
   FeF+2           6.402e-35   3.568e-35   -34.194   -34.448    -0.254     (0)  
   FeF3            6.245e-36   6.280e-36   -35.204   -35.202     0.002     (0)  
   Fe+3            1.314e-36   4.243e-37   -35.881   -36.372    -0.491     (0)  
   FeCl+2          1.851e-39   1.031e-39   -38.733   -38.987    -0.254     (0)  
   FeCl2+          0.000e+00   0.000e+00   -42.384   -42.447    -0.063     (0)  
   FeCl3           0.000e+00   0.000e+00   -47.552   -47.550     0.002     (0)  
   Fe2(OH)2+4      0.000e+00   0.000e+00   -50.323   -51.367    -1.044     (0)  
   Fe3(OH)4+5      0.000e+00   0.000e+00   -65.148   -66.780    -1.631     (0)  
H(0)          6.875e-36
   H2              3.437e-36   3.457e-36   -35.464   -35.461     0.002     28.61
K             2.600e-05
   K+              2.600e-05   2.227e-05    -4.585    -4.652    -0.067      9.13
Mg            1.230e-08
   MgOH+           9.609e-09   8.373e-09    -8.017    -8.077    -0.060     (0)  
   Mg+2            2.687e-09   1.532e-09    -8.571    -8.815    -0.244    -21.49
   MgF+            6.247e-12   5.381e-12   -11.204   -11.269    -0.065    -10.48
Mn(2)         1.125e-07
   Mn(OH)3-        6.016e-08   5.198e-08    -7.221    -7.284    -0.063     (0)  
   MnOH+           5.040e-08   4.355e-08    -7.298    -7.361    -0.063     (0)  
   Mn+2            1.985e-09   1.132e-09    -8.702    -8.946    -0.244    -19.25
   MnF+            4.764e-13   4.116e-13   -12.322   -12.386    -0.063     (0)  
   MnCl+           4.214e-13   3.641e-13   -12.375   -12.439    -0.063     -2.86
   MnCl2           1.248e-17   1.255e-17   -16.904   -16.901     0.002     85.16
   Mn(NO3)2        8.488e-18   8.536e-18   -17.071   -17.069     0.002     40.88
   MnCl3-          3.161e-22   2.731e-22   -21.500   -21.564    -0.063     43.50
Mn(3)         1.182e-30
   Mn+3            1.182e-30   3.817e-31   -29.927   -30.418    -0.491     (0)  
N(5)          5.107e-05
   NO3-            5.107e-05   4.356e-05    -4.292    -4.361    -0.069     29.67
   Mn(NO3)2        8.488e-18   8.536e-18   -17.071   -17.069     0.002     40.88
Na            1.944e-02
   Na+             1.944e-02   1.678e-02    -1.711    -1.775    -0.064     -1.27
   NaF             5.047e-07   5.076e-07    -6.297    -6.295     0.002      7.28
   NaOH            2.520e-14   2.534e-14   -13.599   -13.596     0.002     (0)  
O(0)          1.081e-21
   O2              5.405e-22   5.436e-22   -21.267   -21.265     0.002     30.45
Si            3.547e-06
   H3SiO4-         3.063e-06   2.630e-06    -5.514    -5.580    -0.066     28.11
   H2SiO4-2        4.718e-07   2.654e-07    -6.326    -6.576    -0.250     (0)  
   H4SiO4          1.218e-08   1.225e-08    -7.914    -7.912     0.002     52.03
   SiF6-2          0.000e+00   0.000e+00   -51.793   -52.047    -0.254     43.08
Zn            1.154e-06
   Zn(OH)3-        7.471e-07   6.429e-07    -6.127    -6.192    -0.065     (0)  
   Zn(OH)4-2       2.650e-07   1.453e-07    -6.577    -6.838    -0.261     (0)  
   Zn(OH)2         1.418e-07   1.426e-07    -6.848    -6.846     0.002     (0)  
   ZnOH+           1.059e-11   9.115e-12   -10.975   -11.040    -0.065     (0)  
   ZnOHCl          2.066e-14   2.078e-14   -13.685   -13.682     0.002     (0)  
   Zn+2            9.998e-15   5.572e-15   -14.000   -14.254    -0.254    -25.04
   ZnF+            4.845e-18   4.169e-18   -17.315   -17.380    -0.065     (0)  
   ZnCl+           1.416e-18   1.216e-18   -17.849   -17.915    -0.066    -13.31
   ZnCl2           1.003e-22   1.008e-22   -21.999   -21.996     0.002    100.86
   ZnCl3-          1.044e-26   8.968e-27   -25.981   -26.047    -0.066     16.97
   ZnCl4-2         6.401e-31   3.567e-31   -30.194   -30.448    -0.254    145.79

------------------------------Saturation indices-------------------------------

  Phase               SI** log IAP   log K(298 K,   1 atm)

  Al(OH)3(a)       -2.68      8.08   10.76  Al(OH)3
  Albite           -9.91    -27.88  -17.96  NaAlSi3O8
  Anorthite        -3.91    -23.61  -19.70  CaAl2Si2O8
  Ca-Montmorillonite -14.42    -59.36  -44.94  Ca0.165Al2.33Si3.67O10(OH)2
  Chalcedony       -4.37     -7.91   -3.54  SiO2
  Chlorite(14A)     1.74     69.90   68.16  Mg5Al2Si3O10(OH)8
  Chrysotile       -1.47     30.66   32.13  Mg3Si2O5(OH)4
  Fe(OH)3(a)       -4.80      0.09    4.89  Fe(OH)3
  Fluorite         -1.02    -11.61  -10.59  CaF2
  Gibbsite          0.01      8.08    8.08  Al(OH)3
  Goethite          1.11      0.09   -1.02  FeOOH
  H2(g)           -32.36    -35.46   -3.10  H2
  H2O(g)           -1.49     -0.00    1.49  H2O
  Halite           -7.45     -5.88    1.57  NaCl
  Hausmannite      17.51     78.39   60.88  Mn3O4
  Hematite          4.23      0.18   -4.05  Fe2O3
  Illite          -12.53    -52.71  -40.19  K0.6Mg0.25Al2.3Si3.5O10(OH)2
  K-feldspar      -10.23    -30.75  -20.53  KAlSi3O8
  K-mica           -4.60      8.01   12.62  KAl3Si3O10(OH)2
  Kaolinite        -7.04      0.34    7.38  Al2Si2O5(OH)4
  Manganite         6.18     31.52   25.34  MnOOH
  O2(g)           -18.37    -21.26   -2.90  O2
  Pyrochroite       0.16     15.36   15.20  Mn(OH)2
  Pyrolusite        6.39     47.67   41.28  MnO2:H2O
  Quartz           -3.94     -7.91   -3.97  SiO2
  Sepiolite        -8.49      7.25   15.74  Mg2Si3O7.5OH:3H2O
  Sepiolite(d)    -11.41      7.25   18.66  Mg2Si3O7.5OH:3H2O
  SiO2(a)          -5.20     -7.91   -2.71  SiO2
  Sylvite          -9.66     -8.75    0.90  KCl
  Talc             -6.50     14.84   21.33  Mg3Si4O10(OH)2
  Willemite        -3.08     12.20   15.28  Zn2SiO4
  Zn(OH)2(e)       -1.45     10.05   11.50  Zn(OH)2

**For a gas, SI = log10(fugacity). Fugacity = pressure * phi / 1 atm.
  For ideal gases, phi = 1.

Initial solution 2.	 1WBRA2 

-----------------------------Solution composition------------------------------

	Elements           Molality       Moles

	Al                3.738e-03   3.738e-03
	Ca                1.487e-03   1.487e-03
	Cl                2.782e-04   2.782e-04
	Cu                5.747e-07   5.747e-07
	F                 2.856e-05   2.856e-05
	Fe                1.381e-05   1.381e-05
	K                 1.001e-04   1.001e-04
	Mg                1.230e-08   1.230e-08
	Mn                8.375e-10   8.375e-10
	N(5)              5.298e-05   5.298e-05
	Na                1.874e-02   1.874e-02
	Si                2.098e-04   2.098e-04
	Zn                1.705e-07   1.705e-07

----------------------------Description of solution----------------------------

                                       pH  =  12.147      Charge balance
                                       pe  =   4.000    
      Specific Conductance (µS/cm,  26°C)  = 4326
                          Density (g/cm³)  =   0.99817
                               Volume (L)  =   1.00302
                        Activity of water  =   0.999
                 Ionic strength (mol/kgw)  =   2.293e-02
                       Mass of water (kg)  =   1.000e+00
                 Total alkalinity (eq/kg)  =   3.268e-02
                    Total carbon (mol/kg)  =   0.000e+00
                       Total CO2 (mol/kg)  =   0.000e+00
                         Temperature (°C)  =  25.60
                  Electrical balance (eq)  =   2.203e-17
 Percent error, 100*(Cat-|An|)/(Cat+|An|)  =   0.00
                               Iterations  =   8
                                  Total H  = 1.110455e+02
                                  Total O  = 5.553969e+01

----------------------------Distribution of species----------------------------

                                               Log       Log       Log    mole V
   Species          Molality    Activity  Molality  Activity     Gamma   cm³/mol

   OH-             1.727e-02   1.484e-02    -1.763    -1.829    -0.066     -3.95
   H+              8.069e-13   7.136e-13   -12.093   -12.147    -0.053      0.00
   H2O             5.551e+01   9.993e-01     1.744    -0.000     0.000     18.07
Al            3.738e-03
   Al(OH)4-        3.738e-03   3.232e-03    -2.427    -2.491    -0.063     (0)  
   Al(OH)3         1.208e-09   1.214e-09    -8.918    -8.916     0.002     (0)  
   Al(OH)2+        6.481e-15   5.633e-15   -14.188   -14.249    -0.061     (0)  
   AlOH+2          8.538e-22   4.871e-22   -21.069   -21.312    -0.244    -27.44
   AlF2+           1.159e-25   1.007e-25   -24.936   -24.997    -0.061     (0)  
   AlF3            3.074e-26   3.090e-26   -25.512   -25.510     0.002     (0)  
   AlF+2           1.443e-26   8.230e-27   -25.841   -26.085    -0.244     (0)  
   AlF4-           3.465e-28   2.996e-28   -27.460   -27.523    -0.063     (0)  
   Al+3            1.018e-28   3.368e-29   -27.992   -28.473    -0.481    -41.68
Ca            1.487e-03
   Ca+2            1.289e-03   7.353e-04    -2.890    -3.134    -0.244    -17.78
   CaOH+           1.978e-04   1.709e-04    -3.704    -3.767    -0.064     (0)  
Cl            2.782e-04
   Cl-             2.782e-04   2.395e-04    -3.556    -3.621    -0.065     18.20
   MnCl+           9.864e-15   8.553e-15   -14.006   -14.068    -0.062     -2.86
   ZnOHCl          9.671e-15   9.723e-15   -14.015   -14.012     0.002     (0)  
   MnCl2           8.894e-19   8.941e-19   -18.051   -18.049     0.002     85.16
   ZnCl+           6.721e-19   5.794e-19   -18.173   -18.237    -0.064    -13.31
   CuCl2-          1.370e-20   1.181e-20   -19.863   -19.928    -0.064     (0)  
   CuCl+           9.517e-21   8.204e-21   -20.021   -20.086    -0.064      0.60
   ZnCl2           1.449e-22   1.456e-22   -21.839   -21.837     0.002    100.86
   MnCl3-          6.801e-23   5.898e-23   -22.167   -22.229    -0.062     43.49
   CuCl3-2         7.948e-24   4.494e-24   -23.100   -23.347    -0.248     (0)  
   CuCl2           1.056e-24   1.062e-24   -23.976   -23.974     0.002     31.70
   ZnCl3-          4.556e-26   3.928e-26   -25.341   -25.406    -0.064     16.98
   FeCl+           4.322e-27   3.733e-27   -26.364   -26.428    -0.064     (0)  
   ZnCl4-2         8.377e-30   4.736e-30   -29.077   -29.325    -0.248    145.77
   CuCl3-          1.058e-30   9.120e-31   -29.976   -30.040    -0.064     (0)  
   FeCl+2          1.453e-34   8.215e-35   -33.838   -34.085    -0.248     (0)  
   CuCl4-2         1.963e-36   1.110e-36   -35.707   -35.955    -0.248     (0)  
   FeCl2+          9.943e-38   8.622e-38   -37.002   -37.064    -0.062     (0)  
   FeCl3           0.000e+00   0.000e+00   -41.687   -41.685     0.002     (0)  
Cu(1)         7.779e-19
   Cu+             7.642e-19   6.523e-19   -18.117   -18.186    -0.069     (0)  
   CuCl2-          1.370e-20   1.181e-20   -19.863   -19.928    -0.064     (0)  
   CuCl3-2         7.948e-24   4.494e-24   -23.100   -23.347    -0.248     (0)  
Cu(2)         5.747e-07
   Cu(OH)2         5.038e-07   5.065e-07    -6.298    -6.295     0.002     (0)  
   Cu(OH)3-        4.948e-08   4.274e-08    -7.306    -7.369    -0.064     (0)  
   Cu(OH)4-2       2.146e-08   1.194e-08    -7.668    -7.923    -0.255     (0)  
   CuOH+           2.008e-13   1.731e-13   -12.697   -12.762    -0.064     (0)  
   Cu+2            2.139e-17   1.236e-17   -16.670   -16.908    -0.238    -26.28
   Cu2(OH)2+2      2.500e-20   1.391e-20   -19.602   -19.857    -0.255     (0)  
   CuCl+           9.517e-21   8.204e-21   -20.021   -20.086    -0.064      0.60
   CuF+            6.376e-21   5.507e-21   -20.195   -20.259    -0.064     (0)  
   CuCl2           1.056e-24   1.062e-24   -23.976   -23.974     0.002     31.70
   CuCl3-          1.058e-30   9.120e-31   -29.976   -30.040    -0.064     (0)  
   CuCl4-2         1.963e-36   1.110e-36   -35.707   -35.955    -0.248     (0)  
F             2.856e-05
   F-              2.834e-05   2.435e-05    -4.548    -4.614    -0.066     -1.20
   NaF             2.262e-07   2.274e-07    -6.645    -6.643     0.002      7.28
   MgF+            2.939e-12   2.541e-12   -11.532   -11.595    -0.063    -10.49
   HF              2.620e-14   2.634e-14   -13.582   -13.579     0.002     12.53
   MnF+            1.703e-15   1.477e-15   -14.769   -14.831    -0.062     (0)  
   HF2-            2.862e-18   2.472e-18   -17.543   -17.607    -0.064     22.20
   ZnF+            3.513e-19   3.034e-19   -18.454   -18.518    -0.064     (0)  
   CuF+            6.376e-21   5.507e-21   -20.195   -20.259    -0.064     (0)  
   AlF2+           1.159e-25   1.007e-25   -24.936   -24.997    -0.061     (0)  
   AlF3            3.074e-26   3.090e-26   -25.512   -25.510     0.002     (0)  
   AlF+2           1.443e-26   8.230e-27   -25.841   -26.085    -0.244     (0)  
   FeF+            3.184e-27   2.750e-27   -26.497   -26.561    -0.064     (0)  
   AlF4-           3.465e-28   2.996e-28   -27.460   -27.523    -0.063     (0)  
   FeF+2           7.677e-31   4.341e-31   -30.115   -30.362    -0.248     (0)  
   FeF2+           4.887e-31   4.238e-31   -30.311   -30.373    -0.062     (0)  
   FeF3            1.630e-32   1.639e-32   -31.788   -31.785     0.002     (0)  
   SiF6-2          0.000e+00   0.000e+00   -51.991   -52.239    -0.248     43.06
Fe(2)         4.035e-18
   Fe(OH)3-        3.964e-18   3.437e-18   -17.402   -17.464    -0.062     (0)  
   Fe(OH)2         6.533e-20   6.568e-20   -19.185   -19.183     0.002     (0)  
   FeOH+           6.032e-21   5.230e-21   -20.220   -20.281    -0.062     (0)  
   Fe+2            1.954e-23   1.129e-23   -22.709   -22.947    -0.238    -21.76
   FeCl+           4.322e-27   3.733e-27   -26.364   -26.428    -0.064     (0)  
   FeF+            3.184e-27   2.750e-27   -26.497   -26.561    -0.064     (0)  
Fe(3)         1.381e-05
   Fe(OH)4-        1.381e-05   1.200e-05    -4.860    -4.921    -0.061     (0)  
   Fe(OH)3         9.122e-09   9.170e-09    -8.040    -8.038     0.002     (0)  
   Fe(OH)2+        5.698e-14   4.952e-14   -13.244   -13.305    -0.061     (0)  
   FeOH+2          1.846e-22   1.044e-22   -21.734   -21.981    -0.248     (0)  
   FeF+2           7.677e-31   4.341e-31   -30.115   -30.362    -0.248     (0)  
   FeF2+           4.887e-31   4.238e-31   -30.311   -30.373    -0.062     (0)  
   Fe+3            3.370e-32   1.114e-32   -31.472   -31.953    -0.481     (0)  
   FeF3            1.630e-32   1.639e-32   -31.788   -31.785     0.002     (0)  
   FeCl+2          1.453e-34   8.215e-35   -33.838   -34.085    -0.248     (0)  
   FeCl2+          9.943e-38   8.622e-38   -37.002   -37.064    -0.062     (0)  
   Fe2(OH)2+4      0.000e+00   0.000e+00   -41.525   -42.543    -1.018     (0)  
   FeCl3           0.000e+00   0.000e+00   -41.687   -41.685     0.002     (0)  
   Fe3(OH)4+5      0.000e+00   0.000e+00   -51.962   -53.553    -1.591     (0)  
H(0)          7.128e-36
   H2              3.564e-36   3.583e-36   -35.448   -35.446     0.002     28.61
K             1.001e-04
   K+              1.001e-04   8.605e-05    -4.000    -4.065    -0.065      9.13
Mg            1.230e-08
   MgOH+           9.595e-09   8.387e-09    -8.018    -8.076    -0.058     (0)  
   Mg+2            2.704e-09   1.563e-09    -8.568    -8.806    -0.238    -21.50
   MgF+            2.939e-12   2.541e-12   -11.532   -11.595    -0.063    -10.49
Mn(2)         8.375e-10
   Mn(OH)3-        4.401e-10   3.817e-10    -9.356    -9.418    -0.062     (0)  
   MnOH+           3.822e-10   3.314e-10    -9.418    -9.480    -0.062     (0)  
   Mn+2            1.517e-11   8.767e-12   -10.819   -11.057    -0.238    -19.30
   MnCl+           9.864e-15   8.553e-15   -14.006   -14.068    -0.062     -2.86
   MnF+            1.703e-15   1.477e-15   -14.769   -14.831    -0.062     (0)  
   MnCl2           8.894e-19   8.941e-19   -18.051   -18.049     0.002     85.16
   Mn(NO3)2        7.139e-20   7.177e-20   -19.146   -19.144     0.002     40.88
   MnCl3-          6.801e-23   5.898e-23   -22.167   -22.229    -0.062     43.49
Mn(3)         8.942e-33
   Mn+3            8.942e-33   2.957e-33   -32.049   -32.529    -0.481     (0)  
N(5)          5.298e-05
   NO3-            5.298e-05   4.538e-05    -4.276    -4.343    -0.067     29.66
   Mn(NO3)2        7.139e-20   7.177e-20   -19.146   -19.144     0.002     40.88
Na            1.874e-02
   Na+             1.874e-02   1.623e-02    -1.727    -1.790    -0.062     -1.28
   NaF             2.262e-07   2.274e-07    -6.645    -6.643     0.002      7.28
   NaOH            2.395e-14   2.408e-14   -13.621   -13.618     0.002     (0)  
O(0)          1.007e-21
   O2              5.033e-22   5.059e-22   -21.298   -21.296     0.002     30.45
Si            2.098e-04
   H3SiO4-         1.819e-04   1.568e-04    -3.740    -3.805    -0.064     28.10
   H2SiO4-2        2.724e-05   1.554e-05    -4.565    -4.809    -0.244     (0)  
   H4SiO4          7.391e-07   7.430e-07    -6.131    -6.129     0.002     52.03
   SiF6-2          0.000e+00   0.000e+00   -51.991   -52.239    -0.248     43.06
Zn            1.705e-07
   Zn(OH)3-        1.108e-07   9.573e-08    -6.955    -7.019    -0.064     (0)  
   Zn(OH)4-2       3.818e-08   2.125e-08    -7.418    -7.673    -0.255     (0)  
   Zn(OH)2         2.150e-08   2.162e-08    -7.668    -7.665     0.002     (0)  
   ZnOH+           1.629e-12   1.407e-12   -11.788   -11.852    -0.064     (0)  
   ZnOHCl          9.671e-15   9.723e-15   -14.015   -14.012     0.002     (0)  
   Zn+2            1.548e-15   8.755e-16   -14.810   -15.058    -0.248    -25.05
   ZnCl+           6.721e-19   5.794e-19   -18.173   -18.237    -0.064    -13.31
   ZnF+            3.513e-19   3.034e-19   -18.454   -18.518    -0.064     (0)  
   ZnCl2           1.449e-22   1.456e-22   -21.839   -21.837     0.002    100.86
   ZnCl3-          4.556e-26   3.928e-26   -25.341   -25.406    -0.064     16.98
   ZnCl4-2         8.377e-30   4.736e-30   -29.077   -29.325    -0.248    145.77

------------------------------Saturation indices-------------------------------

  Phase               SI** log IAP   log K(298 K,   1 atm)

  Al(OH)3(a)       -2.79      7.97   10.76  Al(OH)3
  Albite           -4.70    -22.66  -17.96  NaAlSi3O8
  Anorthite        -0.67    -20.37  -19.70  CaAl2Si2O8
  Ca-Montmorillonite  -8.16    -53.10  -44.94  Ca0.165Al2.33Si3.67O10(OH)2
  Chalcedony       -2.58     -6.13   -3.54  SiO2
  Chlorite(14A)     6.82     74.98   68.16  Mg5Al2Si3O10(OH)8
  Chrysotile        2.08     34.20   32.13  Mg3Si2O5(OH)4
  Fe(OH)3(a)       -0.41      4.49    4.89  Fe(OH)3
  Fluorite         -1.77    -12.36  -10.59  CaF2
  Gibbsite         -0.11      7.97    8.08  Al(OH)3
  Goethite          5.51      4.49   -1.02  FeOOH
  H2(g)           -32.34    -35.45   -3.10  H2
  H2O(g)           -1.49     -0.00    1.49  H2O
  Halite           -6.98     -5.41    1.57  NaCl
  Hausmannite      11.12     72.00   60.88  Mn3O4
  Hematite         13.03      8.97   -4.05  Fe2O3
  Illite           -6.21    -46.39  -40.19  K0.6Mg0.25Al2.3Si3.5O10(OH)2
  K-feldspar       -4.41    -24.94  -20.53  KAlSi3O8
  K-mica            0.98     13.60   12.62  KAl3Si3O10(OH)2
  Kaolinite        -3.71      3.68    7.38  Al2Si2O5(OH)4
  Manganite         4.04     29.38   25.34  MnOOH
  O2(g)           -18.40    -21.30   -2.90  O2
  Pyrochroite      -1.96     13.24   15.20  Mn(OH)2
  Pyrolusite        4.24     45.53   41.28  MnO2:H2O
  Quartz           -2.16     -6.13   -3.97  SiO2
  Sepiolite        -3.16     12.59   15.74  Mg2Si3O7.5OH:3H2O
  Sepiolite(d)     -6.07     12.59   18.66  Mg2Si3O7.5OH:3H2O
  SiO2(a)          -3.42     -6.13   -2.71  SiO2
  Sylvite          -8.59     -7.69    0.90  KCl
  Talc              0.62     21.95   21.33  Mg3Si4O10(OH)2
  Willemite        -2.94     12.34   15.28  Zn2SiO4
  Zn(OH)2(e)       -2.27      9.23   11.50  Zn(OH)2

**For a gas, SI = log10(fugacity). Fugacity = pressure * phi / 1 atm.
  For ideal gases, phi = 1.

Initial solution 3.	 1WBRS1 

-----------------------------Solution composition------------------------------

	Elements           Molality       Moles

	Al                4.832e-03   4.832e-03
	Ca                1.418e-03   1.418e-03
	Cl                8.778e-05   8.778e-05
	Cu                9.968e-08   9.968e-08
	F                 7.843e-05   7.843e-05
	Fe                4.662e-07   4.662e-07
	K                 2.497e-05   2.497e-05
	Mg                1.230e-08   1.230e-08
	Mn                8.375e-10   8.375e-10
	N(5)              2.286e-04   2.286e-04
	Na                1.950e-02   1.950e-02
	Si                2.815e-04   2.815e-04
	Zn                1.389e-07   1.389e-07

----------------------------Description of solution----------------------------

                                       pH  =  12.011      Charge balance
                                       pe  =   4.000    
      Specific Conductance (µS/cm,  29°C)  = 4513
                          Density (g/cm³)  =   0.99724
                               Volume (L)  =   1.00407
                        Activity of water  =   0.999
                 Ionic strength (mol/kgw)  =   2.352e-02
                       Mass of water (kg)  =   1.000e+00
                 Total alkalinity (eq/kg)  =   3.646e-02
                    Total carbon (mol/kg)  =   0.000e+00
                       Total CO2 (mol/kg)  =   0.000e+00
                         Temperature (°C)  =  29.30
                  Electrical balance (eq)  =   7.206e-18
 Percent error, 100*(Cat-|An|)/(Cat+|An|)  =   0.00
                               Iterations  =  10
                                  Total H  = 1.110494e+02
                                  Total O  = 5.554417e+01

----------------------------Distribution of species----------------------------

                                               Log       Log       Log    mole V
   Species          Molality    Activity  Molality  Activity     Gamma   cm³/mol

   OH-             1.667e-02   1.429e-02    -1.778    -1.845    -0.067     -3.82
   H+              1.105e-12   9.757e-13   -11.956   -12.011    -0.054      0.00
   H2O             5.551e+01   9.993e-01     1.744    -0.000     0.000     18.09
Al            4.832e-03
   Al(OH)4-        4.832e-03   4.168e-03    -2.316    -2.380    -0.064     (0)  
   Al(OH)3         2.015e-09   2.026e-09    -8.696    -8.693     0.002     (0)  
   Al(OH)2+        1.139e-14   9.878e-15   -13.943   -14.005    -0.062     (0)  
   AlOH+2          1.510e-21   8.537e-22   -20.821   -21.069    -0.248    -27.57
   AlF2+           1.713e-24   1.486e-24   -23.766   -23.828    -0.062     (0)  
   AlF3            1.246e-24   1.252e-24   -23.905   -23.902     0.002     (0)  
   AlF+2           7.694e-26   4.349e-26   -25.114   -25.362    -0.248     (0)  
   AlF4-           3.857e-26   3.327e-26   -25.414   -25.478    -0.064     (0)  
   Al+3            1.955e-28   6.360e-29   -27.709   -28.197    -0.488    -41.90
Ca            1.418e-03
   Ca+2            1.275e-03   7.208e-04    -2.894    -3.142    -0.248    -17.74
   CaOH+           1.422e-04   1.225e-04    -3.847    -3.912    -0.065     (0)  
Cl            8.778e-05
   Cl-             8.778e-05   7.537e-05    -4.057    -4.123    -0.066     18.29
   ZnOHCl          4.687e-15   4.712e-15   -14.329   -14.327     0.002     (0)  
   MnCl+           4.614e-15   3.992e-15   -14.336   -14.399    -0.063     -2.04
   ZnCl+           5.243e-19   4.508e-19   -18.280   -18.346    -0.066     -9.92
   MnCl2           1.306e-19   1.313e-19   -18.884   -18.882     0.002     80.93
   CuCl+           1.213e-21   1.043e-21   -20.916   -20.982    -0.066     -0.29
   CuCl2-          4.716e-22   4.055e-22   -21.326   -21.392    -0.066     (0)  
   ZnCl2           3.600e-23   3.619e-23   -22.444   -22.441     0.002     94.12
   MnCl3-          3.151e-24   2.726e-24   -23.502   -23.564    -0.063     43.35
   CuCl3-2         8.790e-26   4.923e-26   -25.056   -25.308    -0.252     (0)  
   CuCl2           4.394e-26   4.418e-26   -25.357   -25.355     0.002     35.70
   ZnCl3-          3.651e-27   3.139e-27   -26.438   -26.503    -0.066     17.30
   FeCl+           6.815e-29   5.871e-29   -28.167   -28.231    -0.065     (0)  
   ZnCl4-2         2.189e-31   1.226e-31   -30.660   -30.911    -0.252    146.23
   CuCl3-          1.481e-32   1.274e-32   -31.829   -31.895    -0.066     (0)  
   FeCl+2          3.160e-36   1.770e-36   -35.500   -35.752    -0.252     (0)  
   CuCl4-2         9.474e-39   5.307e-39   -38.023   -38.275    -0.252     (0)  
   FeCl2+          6.022e-40   5.210e-40   -39.220   -39.283    -0.063     (0)  
   FeCl3           0.000e+00   0.000e+00   -44.408   -44.406     0.002     (0)  
Cu(1)         2.684e-19
   Cu+             2.679e-19   2.280e-19   -18.572   -18.642    -0.070     (0)  
   CuCl2-          4.716e-22   4.055e-22   -21.326   -21.392    -0.066     (0)  
   CuCl3-2         8.790e-26   4.923e-26   -25.056   -25.308    -0.252     (0)  
Cu(2)         9.968e-08
   Cu(OH)2         9.103e-08   9.152e-08    -7.041    -7.038     0.002     (0)  
   Cu(OH)3-        6.555e-09   5.648e-09    -8.183    -8.248    -0.065     (0)  
   Cu(OH)4-2       2.095e-09   1.154e-09    -8.679    -8.938    -0.259     (0)  
   CuOH+           4.974e-14   4.277e-14   -13.303   -13.369    -0.066     (0)  
   Cu+2            7.290e-18   4.176e-18   -17.137   -17.379    -0.242    -26.31
   CuF+            6.114e-21   5.267e-21   -20.214   -20.278    -0.065     (0)  
   Cu2(OH)2+2      2.213e-21   1.219e-21   -20.655   -20.914    -0.259     (0)  
   CuCl+           1.213e-21   1.043e-21   -20.916   -20.982    -0.066     -0.29
   CuCl2           4.394e-26   4.418e-26   -25.357   -25.355     0.002     35.70
   CuCl3-          1.481e-32   1.274e-32   -31.829   -31.895    -0.066     (0)  
   CuCl4-2         9.474e-39   5.307e-39   -38.023   -38.275    -0.252     (0)  
F             7.843e-05
   F-              7.778e-05   6.667e-05    -4.109    -4.176    -0.067     -1.17
   NaF             6.428e-07   6.463e-07    -6.192    -6.190     0.002      7.41
   MgF+            8.477e-12   7.312e-12   -11.072   -11.136    -0.064    -10.50
   HF              1.049e-13   1.055e-13   -12.979   -12.977     0.002     12.68
   MnF+            6.932e-15   5.997e-15   -14.159   -14.222    -0.063     (0)  
   HF2-            3.230e-17   2.783e-17   -16.491   -16.555    -0.065     22.35
   ZnF+            2.125e-18   1.831e-18   -17.673   -17.737    -0.065     (0)  
   CuF+            6.114e-21   5.267e-21   -20.214   -20.278    -0.065     (0)  
   AlF2+           1.713e-24   1.486e-24   -23.766   -23.828    -0.062     (0)  
   AlF3            1.246e-24   1.252e-24   -23.905   -23.902     0.002     (0)  
   AlF+2           7.694e-26   4.349e-26   -25.114   -25.362    -0.248     (0)  
   AlF4-           3.857e-26   3.327e-26   -25.414   -25.478    -0.064     (0)  
   FeF+            4.367e-28   3.762e-28   -27.360   -27.425    -0.065     (0)  
   FeF2+           2.473e-31   2.139e-31   -30.607   -30.670    -0.063     (0)  
   FeF+2           1.368e-31   7.664e-32   -30.864   -31.116    -0.252     (0)  
   FeF3            2.281e-32   2.293e-32   -31.642   -31.640     0.002     (0)  
   SiF6-2          0.000e+00   0.000e+00   -48.753   -49.005    -0.252     43.27
Fe(2)         1.484e-19
   Fe(OH)3-        1.450e-19   1.254e-19   -18.839   -18.902    -0.063     (0)  
   Fe(OH)2         3.145e-21   3.162e-21   -20.502   -20.500     0.002     (0)  
   FeOH+           2.900e-22   2.509e-22   -21.538   -21.601    -0.063     (0)  
   Fe+2            9.851e-25   5.643e-25   -24.006   -24.248    -0.242    -21.54
   FeF+            4.367e-28   3.762e-28   -27.360   -27.425    -0.065     (0)  
   FeCl+           6.815e-29   5.871e-29   -28.167   -28.231    -0.065     (0)  
Fe(3)         4.662e-07
   Fe(OH)4-        4.659e-07   4.040e-07    -6.332    -6.394    -0.062     (0)  
   Fe(OH)3         3.628e-10   3.647e-10    -9.440    -9.438     0.002     (0)  
   Fe(OH)2+        2.650e-15   2.298e-15   -14.577   -14.639    -0.062     (0)  
   FeOH+2          1.030e-23   5.770e-24   -22.987   -23.239    -0.252     (0)  
   FeF2+           2.473e-31   2.139e-31   -30.607   -30.670    -0.063     (0)  
   FeF+2           1.368e-31   7.664e-32   -30.864   -31.116    -0.252     (0)  
   FeF3            2.281e-32   2.293e-32   -31.642   -31.640     0.002     (0)  
   Fe+3            2.090e-33   6.799e-34   -32.680   -33.168    -0.488     (0)  
   FeCl+2          3.160e-36   1.770e-36   -35.500   -35.752    -0.252     (0)  
   FeCl2+          6.022e-40   5.210e-40   -39.220   -39.283    -0.063     (0)  
   Fe2(OH)2+4      0.000e+00   0.000e+00   -44.088   -45.124    -1.035     (0)  
   FeCl3           0.000e+00   0.000e+00   -44.408   -44.406     0.002     (0)  
   Fe3(OH)4+5      0.000e+00   0.000e+00   -55.995   -57.612    -1.618     (0)  
H(0)          1.285e-35
   H2              6.426e-36   6.461e-36   -35.192   -35.190     0.002     28.60
K             2.497e-05
   K+              2.497e-05   2.142e-05    -4.603    -4.669    -0.067      9.24
Mg            1.230e-08
   MgOH+           9.610e-09   8.383e-09    -8.017    -8.077    -0.059     (0)  
   Mg+2            2.684e-09   1.537e-09    -8.571    -8.813    -0.242    -21.62
   MgF+            8.477e-12   7.312e-12   -11.072   -11.136    -0.064    -10.50
Mn(2)         8.375e-10
   MnOH+           5.589e-10   4.835e-10    -9.253    -9.316    -0.063     (0)  
   Mn(OH)3-        2.559e-10   2.214e-10    -9.592    -9.655    -0.063     (0)  
   Mn+2            2.270e-11   1.300e-11   -10.644   -10.886    -0.242    -19.23
   MnF+            6.932e-15   5.997e-15   -14.159   -14.222    -0.063     (0)  
   MnCl+           4.614e-15   3.992e-15   -14.336   -14.399    -0.063     -2.04
   Mn(NO3)2        1.945e-18   1.955e-18   -17.711   -17.709     0.002     39.96
   MnCl2           1.306e-19   1.313e-19   -18.884   -18.882     0.002     80.93
   MnCl3-          3.151e-24   2.726e-24   -23.502   -23.564    -0.063     43.35
Mn(3)         2.294e-32
   Mn+3            2.294e-32   7.462e-33   -31.639   -32.127    -0.488     (0)  
N(5)          2.286e-04
   NO3-            2.286e-04   1.953e-04    -3.641    -3.709    -0.068     29.99
   Mn(NO3)2        1.945e-18   1.955e-18   -17.711   -17.709     0.002     39.96
Na            1.950e-02
   Na+             1.949e-02   1.685e-02    -1.710    -1.774    -0.063     -1.09
   NaF             6.428e-07   6.463e-07    -6.192    -6.190     0.002      7.41
   NaOH            2.394e-14   2.407e-14   -13.621   -13.619     0.002     (0)  
O(0)          4.628e-21
   O2              2.314e-21   2.327e-21   -20.636   -20.633     0.002     30.72
Si            2.815e-04
   H3SiO4-         2.460e-04   2.115e-04    -3.609    -3.675    -0.066     28.18
   H2SiO4-2        3.427e-05   1.937e-05    -4.465    -4.713    -0.248     (0)  
   H4SiO4          1.204e-06   1.210e-06    -5.920    -5.917     0.002     51.74
   SiF6-2          0.000e+00   0.000e+00   -48.753   -49.005    -0.252     43.27
Zn            1.389e-07
   Zn(OH)3-        9.151e-08   7.884e-08    -7.039    -7.103    -0.065     (0)  
   Zn(OH)2         2.421e-08   2.434e-08    -7.616    -7.614     0.002     (0)  
   Zn(OH)4-2       2.322e-08   1.280e-08    -7.634    -7.893    -0.259     (0)  
   ZnOH+           3.314e-12   2.855e-12   -11.480   -11.544    -0.065     (0)  
   ZnOHCl          4.687e-15   4.712e-15   -14.329   -14.327     0.002     (0)  
   Zn+2            3.291e-15   1.844e-15   -14.483   -14.734    -0.252    -25.28
   ZnF+            2.125e-18   1.831e-18   -17.673   -17.737    -0.065     (0)  
   ZnCl+           5.243e-19   4.508e-19   -18.280   -18.346    -0.066     -9.92
   ZnCl2           3.600e-23   3.619e-23   -22.444   -22.441     0.002     94.12
   ZnCl3-          3.651e-27   3.139e-27   -26.438   -26.503    -0.066     17.30
   ZnCl4-2         2.189e-31   1.226e-31   -30.660   -30.911    -0.252    146.23

------------------------------Saturation indices-------------------------------

  Phase               SI** log IAP   log K(302 K,   1 atm)

  Al(OH)3(a)       -2.69      7.83   10.52  Al(OH)3
  Albite           -4.17    -21.90  -17.73  NaAlSi3O8
  Anorthite        -0.14    -19.73  -19.59  CaAl2Si2O8
  Ca-Montmorillonite  -7.38    -51.80  -44.42  Ca0.165Al2.33Si3.67O10(OH)2
  Chalcedony       -2.41     -5.92   -3.50  SiO2
  Chlorite(14A)     7.16     73.96   66.80  Mg5Al2Si3O10(OH)8
  Chrysotile        2.11     33.79   31.68  Mg3Si2O5(OH)4
  Fe(OH)3(a)       -2.03      2.86    4.89  Fe(OH)3
  Fluorite         -0.94    -11.49  -10.55  CaF2
  Gibbsite         -0.04      7.83    7.87  Al(OH)3
  Goethite          4.01      2.86   -1.15  FeOOH
  H2(g)           -32.08    -35.19   -3.11  H2
  H2O(g)           -1.39     -0.00    1.39  H2O
  Halite           -7.47     -5.90    1.57  NaCl
  Hausmannite      11.44     71.43   59.98  Mn3O4
  Hematite         10.06      5.73   -4.33  Fe2O3
  Illite           -5.90    -45.60  -39.70  K0.6Mg0.25Al2.3Si3.5O10(OH)2
  K-feldspar       -4.55    -24.80  -20.25  KAlSi3O8
  K-mica            1.01     13.10   12.08  KAl3Si3O10(OH)2
  Kaolinite        -3.23      3.84    7.07  Al2Si2O5(OH)4
  Manganite         3.81     29.15   25.34  MnOOH
  O2(g)           -17.71    -20.63   -2.92  O2
  Pyrochroite      -2.07     13.13   15.20  Mn(OH)2
  Pyrolusite        4.45     45.16   40.70  MnO2:H2O
  Quartz           -2.00     -5.92   -3.92  SiO2
  Sepiolite        -2.98     12.66   15.65  Mg2Si3O7.5OH:3H2O
  Sepiolite(d)     -6.00     12.66   18.66  Mg2Si3O7.5OH:3H2O
  SiO2(a)          -3.24     -5.92   -2.68  SiO2
  Sylvite          -9.71     -8.79    0.92  KCl
  Talc              1.04     21.96   20.92  Mg3Si4O10(OH)2
  Willemite        -2.33     12.66   14.98  Zn2SiO4
  Zn(OH)2(e)       -2.21      9.29   11.50  Zn(OH)2

**For a gas, SI = log10(fugacity). Fugacity = pressure * phi / 1 atm.
  For ideal gases, phi = 1.

Initial solution 4.	 1WBRG2  

-----------------------------Solution composition------------------------------

	Elements           Molality       Moles

	Al                8.580e-06   8.580e-06
	Ca                1.272e-02   1.272e-02
	Cl                1.183e-04   1.183e-04
	Cu                3.544e-07   3.544e-07
	F                 2.459e-05   2.459e-05
	Fe                4.434e-06   4.434e-06
	K                 3.908e-05   3.908e-05
	Mg                1.556e-06   1.556e-06
	Mn                8.380e-10   8.380e-10
	N(5)              5.098e-05   5.098e-05
	Na                3.187e-02   3.187e-02
	S(6)              7.906e-05   7.906e-05
	Si                1.750e-05   1.750e-05
	Zn                2.743e-07   2.743e-07

----------------------------Description of solution----------------------------

                                       pH  =  12.461      Charge balance
                                       pe  =   4.000    
      Specific Conductance (µS/cm,  30°C)  = 13429
                          Density (g/cm³)  =   0.99820
                               Volume (L)  =   1.00404
                        Activity of water  =   0.998
                 Ionic strength (mol/kgw)  =   6.481e-02
                       Mass of water (kg)  =   1.000e+00
                 Total alkalinity (eq/kg)  =   5.703e-02
                    Total carbon (mol/kg)  =   0.000e+00
                       Total CO2 (mol/kg)  =   0.000e+00
                         Temperature (°C)  =  30.20
                  Electrical balance (eq)  =   1.450e-16
 Percent error, 100*(Cat-|An|)/(Cat+|An|)  =   0.00
                               Iterations  =   8
                                  Total H  = 1.110695e+02
                                  Total O  = 5.556377e+01

----------------------------Distribution of species----------------------------

                                               Log       Log       Log    mole V
   Species          Molality    Activity  Molality  Activity     Gamma   cm³/mol

   OH-             5.433e-02   4.303e-02    -1.265    -1.366    -0.101     -3.65
   H+              4.104e-13   3.456e-13   -12.387   -12.461    -0.075      0.00
   H2O             5.551e+01   9.983e-01     1.744    -0.001     0.000     18.10
Al            8.580e-06
   Al(OH)4-        8.580e-06   6.892e-06    -5.067    -5.162    -0.095     (0)  
   Al(OH)3         1.153e-12   1.170e-12   -11.938   -11.932     0.006     (0)  
   Al(OH)2+        2.340e-18   1.902e-18   -17.631   -17.721    -0.090     (0)  
   AlOH+2          1.242e-25   5.410e-26   -24.906   -25.267    -0.361    -27.38
   AlF2+           3.267e-30   2.654e-30   -29.486   -29.576    -0.090     (0)  
   AlF3            6.370e-31   6.466e-31   -30.196   -30.189     0.006     (0)  
   AlF+2           6.147e-31   2.678e-31   -30.211   -30.572    -0.361     (0)  
   Al+3            6.342e-33   1.349e-33   -32.198   -32.870    -0.672    -41.59
   AlF4-           6.177e-33   4.962e-33   -32.209   -32.304    -0.095     (0)  
   AlSO4+          1.351e-34   1.085e-34   -33.869   -33.965    -0.095     (0)  
   Al(SO4)2-       1.041e-37   8.361e-38   -36.983   -37.078    -0.095     (0)  
   AlHSO4+2        0.000e+00   0.000e+00   -47.079   -47.457    -0.378     (0)  
Ca            1.272e-02
   Ca+2            1.007e-02   4.411e-03    -1.997    -2.355    -0.359    -17.49
   CaOH+           2.628e-03   2.115e-03    -2.580    -2.675    -0.094     (0)  
   CaSO4           1.911e-05   1.940e-05    -4.719    -4.712     0.006      7.68
   CaHSO4+         5.918e-17   4.761e-17   -16.228   -16.322    -0.094     (0)  
Cl            1.183e-04
   Cl-             1.183e-04   9.409e-05    -3.927    -4.026    -0.099     18.41
   ZnOHCl          1.037e-15   1.053e-15   -14.984   -14.978     0.006     (0)  
   MnCl+           6.469e-16   5.230e-16   -15.189   -15.281    -0.092     -1.80
   ZnCl+           4.652e-20   3.712e-20   -19.332   -19.430    -0.098     -9.24
   MnCl2           2.116e-20   2.148e-20   -19.674   -19.668     0.006     79.96
   CuCl+           5.751e-22   4.588e-22   -21.240   -21.338    -0.098     -0.37
   CuCl2-          2.692e-22   2.147e-22   -21.570   -21.668    -0.098     (0)  
   ZnCl2           3.677e-24   3.733e-24   -23.434   -23.428     0.006     92.58
   MnCl3-          6.886e-25   5.567e-25   -24.162   -24.254    -0.092     43.53
   CuCl3-2         7.644e-26   3.266e-26   -25.117   -25.486    -0.369     (0)  
   CuCl2           2.414e-26   2.450e-26   -25.617   -25.611     0.006     36.61
   ZnCl3-          5.093e-28   4.063e-28   -27.293   -27.391    -0.098     17.15
   FeCl+           1.045e-29   8.408e-30   -28.981   -29.075    -0.094     (0)  
   ZnCl4-2         4.670e-32   1.995e-32   -31.331   -31.700    -0.369    146.88
   CuCl3-          1.122e-32   8.954e-33   -31.950   -32.048    -0.098     (0)  
   FeCl+2          6.397e-37   2.733e-37   -36.194   -36.563    -0.369     (0)  
   CuCl4-2         1.112e-38   4.753e-39   -37.954   -38.323    -0.369     (0)  
   FeCl2+          1.208e-40   0.000e+00   -39.918   -40.010    -0.092     (0)  
   FeCl3           0.000e+00   0.000e+00   -45.043   -45.037     0.006     (0)  
Cu(1)         9.991e-20
   Cu+             9.964e-20   7.764e-20   -19.002   -19.110    -0.108     (0)  
   CuCl2-          2.692e-22   2.147e-22   -21.570   -21.668    -0.098     (0)  
   CuCl3-2         7.644e-26   3.266e-26   -25.117   -25.486    -0.369     (0)  
Cu(2)         3.544e-07
   Cu(OH)2         2.423e-07   2.459e-07    -6.616    -6.609     0.006     (0)  
   Cu(OH)4-2       5.888e-08   2.467e-08    -7.230    -7.608    -0.378     (0)  
   Cu(OH)3-        5.320e-08   4.281e-08    -7.274    -7.368    -0.094     (0)  
   CuOH+           5.107e-14   4.075e-14   -13.292   -13.390    -0.098     (0)  
   Cu+2            3.148e-18   1.410e-18   -17.502   -17.851    -0.349    -26.10
   CuSO4           6.995e-21   7.100e-21   -20.155   -20.149     0.006     13.69
   Cu2(OH)2+2      2.880e-21   1.207e-21   -20.541   -20.918    -0.378     (0)  
   CuF+            6.436e-22   5.178e-22   -21.191   -21.286    -0.094     (0)  
   CuCl+           5.751e-22   4.588e-22   -21.240   -21.338    -0.098     -0.37
   CuCl2           2.414e-26   2.450e-26   -25.617   -25.611     0.006     36.61
   CuCl3-          1.122e-32   8.954e-33   -31.950   -32.048    -0.098     (0)  
   CuCl4-2         1.112e-38   4.753e-39   -37.954   -38.323    -0.369     (0)  
F             2.459e-05
   F-              2.431e-05   1.925e-05    -4.614    -4.716    -0.101     -1.07
   NaF             2.812e-07   2.854e-07    -6.551    -6.545     0.006      7.44
   MgF+            1.204e-10   9.669e-11    -9.919   -10.015    -0.095    -10.44
   HF              1.081e-14   1.097e-14   -13.966   -13.960     0.006     12.72
   MnF+            2.248e-16   1.817e-16   -15.648   -15.741    -0.092     (0)  
   HF2-            1.045e-18   8.407e-19   -17.981   -18.075    -0.094     22.48
   ZnF+            4.216e-20   3.392e-20   -19.375   -19.469    -0.094     (0)  
   CuF+            6.436e-22   5.178e-22   -21.191   -21.286    -0.094     (0)  
   FeF+            1.549e-29   1.246e-29   -28.810   -28.904    -0.094     (0)  
   AlF2+           3.267e-30   2.654e-30   -29.486   -29.576    -0.090     (0)  
   AlF3            6.370e-31   6.466e-31   -30.196   -30.189     0.006     (0)  
   AlF+2           6.147e-31   2.678e-31   -30.211   -30.572    -0.361     (0)  
   FeF+2           6.317e-33   2.699e-33   -32.199   -32.569    -0.369     (0)  
   AlF4-           6.177e-33   4.962e-33   -32.209   -32.304    -0.095     (0)  
   FeF2+           2.719e-33   2.198e-33   -32.566   -32.658    -0.092     (0)  
   FeF3            6.723e-35   6.824e-35   -34.172   -34.166     0.006     (0)  
   SiF6-2          0.000e+00   0.000e+00   -55.529   -55.898    -0.369     43.71
Fe(2)         4.672e-19
   Fe(OH)3-        4.638e-19   3.750e-19   -18.334   -18.426    -0.092     (0)  
   Fe(OH)2         3.274e-21   3.323e-21   -20.485   -20.478     0.006     (0)  
   FeOH+           1.072e-22   8.664e-23   -21.970   -22.062    -0.092     (0)  
   Fe+2            1.445e-25   6.474e-26   -24.840   -25.189    -0.349    -21.26
   FeSO4           2.964e-28   3.008e-28   -27.528   -27.522     0.006     13.91
   FeF+            1.549e-29   1.246e-29   -28.810   -28.904    -0.094     (0)  
   FeCl+           1.045e-29   8.408e-30   -28.981   -29.075    -0.094     (0)  
   FeHSO4+         8.685e-40   6.988e-40   -39.061   -39.156    -0.094     (0)  
Fe(3)         4.434e-06
   Fe(OH)4-        4.433e-06   3.601e-06    -5.353    -5.444    -0.090     (0)  
   Fe(OH)3         1.097e-09   1.113e-09    -8.960    -8.953     0.006     (0)  
   Fe(OH)2+        2.946e-15   2.394e-15   -14.531   -14.621    -0.090     (0)  
   FeOH+2          4.825e-24   2.061e-24   -23.317   -23.686    -0.369     (0)  
   FeF+2           6.317e-33   2.699e-33   -32.199   -32.569    -0.369     (0)  
   FeF2+           2.719e-33   2.198e-33   -32.566   -32.658    -0.092     (0)  
   Fe+3            3.845e-34   8.181e-35   -33.415   -34.087    -0.672     (0)  
   FeF3            6.723e-35   6.824e-35   -34.172   -34.166     0.006     (0)  
   FeSO4+          2.957e-35   2.390e-35   -34.529   -34.622    -0.092     (0)  
   FeCl+2          6.397e-37   2.733e-37   -36.194   -36.563    -0.369     (0)  
   Fe(SO4)2-       1.578e-38   1.270e-38   -37.802   -37.896    -0.094     (0)  
   FeCl2+          1.208e-40   0.000e+00   -39.918   -40.010    -0.092     (0)  
   Fe2(OH)2+4      0.000e+00   0.000e+00   -44.522   -46.033    -1.511     (0)  
   FeCl3           0.000e+00   0.000e+00   -45.043   -45.037     0.006     (0)  
   FeHSO4+2        0.000e+00   0.000e+00   -46.276   -46.654    -0.378     (0)  
   Fe3(OH)4+5      0.000e+00   0.000e+00   -56.178   -58.539    -2.361     (0)  
H(0)          1.583e-36
   H2              7.916e-37   8.035e-37   -36.101   -36.095     0.006     28.60
K             3.908e-05
   K+              3.907e-05   3.101e-05    -4.408    -4.509    -0.100      9.35
   KSO4-           6.977e-09   5.669e-09    -8.156    -8.247    -0.090     34.43
Mg            1.556e-06
   MgOH+           1.402e-06   1.153e-06    -5.853    -5.938    -0.085     (0)  
   Mg+2            1.536e-07   6.930e-08    -6.814    -7.159    -0.346    -21.42
   MgSO4           4.345e-10   4.410e-10    -9.362    -9.356     0.006      6.02
   MgF+            1.204e-10   9.669e-11    -9.919   -10.015    -0.095    -10.44
Mn(2)         8.380e-10
   Mn(OH)3-        6.449e-10   5.214e-10    -9.191    -9.283    -0.092     (0)  
   MnOH+           1.901e-10   1.537e-10    -9.721    -9.813    -0.092     (0)  
   Mn+2            3.046e-12   1.365e-12   -11.516   -11.865    -0.349    -18.45
   MnSO4           6.272e-15   6.366e-15   -14.203   -14.196     0.006     20.40
   MnCl+           6.469e-16   5.230e-16   -15.189   -15.281    -0.092     -1.80
   MnF+            2.248e-16   1.817e-16   -15.648   -15.741    -0.092     (0)  
   MnCl2           2.116e-20   2.148e-20   -19.674   -19.668     0.006     79.96
   Mn(NO3)2        8.489e-21   8.617e-21   -20.071   -20.065     0.006     39.75
   MnCl3-          6.886e-25   5.567e-25   -24.162   -24.254    -0.092     43.53
Mn(3)         4.181e-33
   Mn+3            4.181e-33   8.895e-34   -32.379   -33.051    -0.672     (0)  
N(5)          5.098e-05
   NO3-            5.098e-05   4.006e-05    -4.293    -4.397    -0.105     30.17
   Mn(NO3)2        8.489e-21   8.617e-21   -20.071   -20.065     0.006     39.75
Na            3.187e-02
   Na+             3.186e-02   2.576e-02    -1.497    -1.589    -0.092     -0.92
   NaSO4-          3.906e-06   3.174e-06    -5.408    -5.498    -0.090     15.57
   NaF             2.812e-07   2.854e-07    -6.551    -6.545     0.006      7.44
   NaOH            1.092e-13   1.108e-13   -12.962   -12.955     0.006     (0)  
O(0)          5.656e-19
   O2              2.828e-19   2.870e-19   -18.549   -18.542     0.006     30.78
S(6)          7.906e-05
   SO4-2           5.603e-05   2.380e-05    -4.252    -4.623    -0.372     15.97
   CaSO4           1.911e-05   1.940e-05    -4.719    -4.712     0.006      7.68
   NaSO4-          3.906e-06   3.174e-06    -5.408    -5.498    -0.090     15.57
   KSO4-           6.977e-09   5.669e-09    -8.156    -8.247    -0.090     34.43
   MgSO4           4.345e-10   4.410e-10    -9.362    -9.356     0.006      6.02
   MnSO4           6.272e-15   6.366e-15   -14.203   -14.196     0.006     20.40
   HSO4-           1.116e-15   8.978e-16   -14.952   -15.047    -0.094     40.80
   CaHSO4+         5.918e-17   4.761e-17   -16.228   -16.322    -0.094     (0)  
   ZnSO4           6.688e-19   6.788e-19   -18.175   -18.168     0.006     20.94
   CuSO4           6.995e-21   7.100e-21   -20.155   -20.149     0.006     13.69
   Zn(SO4)2-2      3.013e-22   1.262e-22   -21.521   -21.899    -0.378     -7.79
   FeSO4           2.964e-28   3.008e-28   -27.528   -27.522     0.006     13.91
   AlSO4+          1.351e-34   1.085e-34   -33.869   -33.965    -0.095     (0)  
   FeSO4+          2.957e-35   2.390e-35   -34.529   -34.622    -0.092     (0)  
   Al(SO4)2-       1.041e-37   8.361e-38   -36.983   -37.078    -0.095     (0)  
   Fe(SO4)2-       1.578e-38   1.270e-38   -37.802   -37.896    -0.094     (0)  
   FeHSO4+         8.685e-40   6.988e-40   -39.061   -39.156    -0.094     (0)  
   FeHSO4+2        0.000e+00   0.000e+00   -46.276   -46.654    -0.378     (0)  
   AlHSO4+2        0.000e+00   0.000e+00   -47.079   -47.457    -0.378     (0)  
Si            1.750e-05
   H3SiO4-         1.165e-05   9.294e-06    -4.934    -5.032    -0.098     28.29
   H2SiO4-2        5.830e-06   2.540e-06    -5.234    -5.595    -0.361     (0)  
   H4SiO4          1.802e-08   1.829e-08    -7.744    -7.738     0.006     51.67
   SiF6-2          0.000e+00   0.000e+00   -55.529   -55.898    -0.369     43.71
Zn            2.743e-07
   Zn(OH)3-        1.395e-07   1.123e-07    -6.855    -6.950    -0.094     (0)  
   Zn(OH)4-2       1.227e-07   5.140e-08    -6.911    -7.289    -0.378     (0)  
   Zn(OH)2         1.211e-08   1.229e-08    -7.917    -7.910     0.006     (0)  
   ZnOH+           6.787e-13   5.460e-13   -12.168   -12.263    -0.094     (0)  
   ZnOHCl          1.037e-15   1.053e-15   -14.984   -14.978     0.006     (0)  
   Zn+2            2.738e-16   1.170e-16   -15.563   -15.932    -0.369    -25.10
   ZnSO4           6.688e-19   6.788e-19   -18.175   -18.168     0.006     20.94
   ZnCl+           4.652e-20   3.712e-20   -19.332   -19.430    -0.098     -9.24
   ZnF+            4.216e-20   3.392e-20   -19.375   -19.469    -0.094     (0)  
   Zn(SO4)2-2      3.013e-22   1.262e-22   -21.521   -21.899    -0.378     -7.79
   ZnCl2           3.677e-24   3.733e-24   -23.434   -23.428     0.006     92.58
   ZnCl3-          5.093e-28   4.063e-28   -27.293   -27.391    -0.098     17.15
   ZnCl4-2         4.670e-32   1.995e-32   -31.331   -31.700    -0.369    146.88

------------------------------Saturation indices-------------------------------

  Phase               SI** log IAP   log K(303 K,   1 atm)

  Al(OH)3(a)       -5.95      4.51   10.47  Al(OH)3
  Albite          -12.28    -29.96  -17.68  NaAlSi3O8
  Alunite         -35.57    -37.60   -2.03  KAl3(SO4)2(OH)6
  Anhydrite        -2.64     -6.98   -4.34  CaSO4
  Anorthite        -8.58    -28.15  -19.57  CaAl2Si2O8
  Ca-Montmorillonite -21.43    -65.73  -44.29  Ca0.165Al2.33Si3.67O10(OH)2
  Chalcedony       -4.24     -7.74   -3.49  SiO2
  Chlorite(14A)     8.15     74.63   66.48  Mg5Al2Si3O10(OH)8
  Chrysotile        6.25     37.81   31.57  Mg3Si2O5(OH)4
  Fe(OH)3(a)       -1.60      3.29    4.89  Fe(OH)3
  Fluorite         -1.24    -11.79  -10.54  CaF2
  Gibbsite         -3.31      4.51    7.82  Al(OH)3
  Goethite          4.48      3.30   -1.18  FeOOH
  Gypsum           -2.40     -6.98   -4.58  CaSO4:2H2O
  H2(g)           -32.98    -36.09   -3.11  H2
  H2O(g)           -1.37     -0.00    1.37  H2O
  Halite           -7.19     -5.62    1.57  NaCl
  Hausmannite      12.33     72.09   59.77  Mn3O4
  Hematite         10.99      6.59   -4.40  Fe2O3
  Illite          -18.81    -58.39  -39.58  K0.6Mg0.25Al2.3Si3.5O10(OH)2
  Jarosite-K      -31.65    -41.25   -9.60  KFe3(SO4)2(OH)6
  K-feldspar      -12.69    -32.88  -20.19  KAlSi3O8
  K-mica          -13.67     -1.72   11.96  KAl3Si3O10(OH)2
  Kaolinite       -13.44     -6.45    6.99  Al2Si2O5(OH)4
  Manganite         4.18     29.52   25.34  MnOOH
  Melanterite     -27.67    -29.82   -2.15  FeSO4:7H2O
  O2(g)           -15.61    -18.54   -2.93  O2
  Pyrochroite      -2.14     13.06   15.20  Mn(OH)2
  Pyrolusite        5.42     45.98   40.56  MnO2:H2O
  Quartz           -3.83     -7.74   -3.91  SiO2
  Sepiolite        -3.31     12.31   15.63  Mg2Si3O7.5OH:3H2O
  Sepiolite(d)     -6.35     12.31   18.66  Mg2Si3O7.5OH:3H2O
  SiO2(a)          -5.07     -7.74   -2.67  SiO2
  Sylvite          -9.46     -8.53    0.93  KCl
  Talc              1.53     22.34   20.82  Mg3Si4O10(OH)2
  Willemite        -4.67     10.24   14.91  Zn2SiO4
  Zn(OH)2(e)       -2.51      8.99   11.50  Zn(OH)2

**For a gas, SI = log10(fugacity). Fugacity = pressure * phi / 1 atm.
  For ideal gases, phi = 1.

Initial solution 5.	 2WBR1 

-----------------------------Solution composition------------------------------

	Elements           Molality       Moles

	Al                2.332e-03   2.332e-03
	Ca                9.115e-04   9.115e-04
	Cl                5.818e-05   5.818e-05
	Cu                7.285e-08   7.285e-08
	F                 3.364e-05   3.364e-05
	Fe                5.667e-10   5.667e-10
	K                 1.414e-05   1.414e-05
	Mg                1.230e-08   1.230e-08
	Mn                8.372e-10   8.372e-10
	N(5)              5.021e-05   5.021e-05
	Na                1.049e-02   1.049e-02
	Si                3.330e-05   3.330e-05
	Zn                1.468e-07   1.468e-07

----------------------------Description of solution----------------------------

                                       pH  =  11.777      Charge balance
                                       pe  =   4.000    
      Specific Conductance (µS/cm,  30°C)  = 2659
                          Density (g/cm³)  =   0.99644
                               Volume (L)  =   1.00425
                        Activity of water  =   1.000
                 Ionic strength (mol/kgw)  =   1.312e-02
                       Mass of water (kg)  =   1.000e+00
                 Total alkalinity (eq/kg)  =   1.918e-02
                    Total carbon (mol/kg)  =   0.000e+00
                       Total CO2 (mol/kg)  =   0.000e+00
                         Temperature (°C)  =  29.80
                  Electrical balance (eq)  =  -6.964e-17
 Percent error, 100*(Cat-|An|)/(Cat+|An|)  =  -0.00
                               Iterations  =   7
                                  Total H  = 1.110317e+02
                                  Total O  = 5.552565e+01

----------------------------Distribution of species----------------------------

                                               Log       Log       Log    mole V
   Species          Molality    Activity  Molality  Activity     Gamma   cm³/mol

   OH-             9.758e-03   8.656e-03    -2.011    -2.063    -0.052     -3.86
   H+              1.849e-12   1.671e-12   -11.733   -11.777    -0.044      0.00
   H2O             5.551e+01   9.996e-01     1.744    -0.000     0.000     18.09
Al            2.332e-03
   Al(OH)4-        2.332e-03   2.077e-03    -2.632    -2.683    -0.050     (0)  
   Al(OH)3         1.709e-09   1.714e-09    -8.767    -8.766     0.001     (0)  
   Al(OH)2+        1.547e-14   1.383e-14   -13.810   -13.859    -0.049     (0)  
   AlOH+2          3.081e-21   1.963e-21   -20.511   -20.707    -0.196    -27.69
   AlF2+           1.265e-24   1.130e-24   -23.898   -23.947    -0.049     (0)  
   AlF3            4.232e-25   4.245e-25   -24.373   -24.372     0.001     (0)  
   AlF+2           1.163e-25   7.408e-26   -24.935   -25.130    -0.196     (0)  
   AlF4-           5.641e-27   5.024e-27   -26.249   -26.299    -0.050     (0)  
   Al+3            6.033e-28   2.425e-28   -27.219   -27.615    -0.396    -42.12
Ca            9.115e-04
   Ca+2            8.510e-04   5.418e-04    -3.070    -3.266    -0.196    -17.84
   CaOH+           6.047e-05   5.379e-05    -4.218    -4.269    -0.051     (0)  
Cl            5.818e-05
   Cl-             5.818e-05   5.166e-05    -4.235    -4.287    -0.052     18.27
   ZnOHCl          9.749e-15   9.778e-15   -14.011   -14.010     0.001     (0)  
   MnCl+           6.435e-15   5.741e-15   -14.191   -14.241    -0.050     -1.97
   ZnCl+           1.841e-18   1.636e-18   -17.735   -17.786    -0.051     -9.48
   MnCl2           1.291e-19   1.295e-19   -18.889   -18.888     0.001     80.39
   CuCl+           1.840e-21   1.635e-21   -20.735   -20.786    -0.051     -0.44
   CuCl2-          4.805e-22   4.271e-22   -21.318   -21.369    -0.051     (0)  
   ZnCl2           8.995e-23   9.022e-23   -22.046   -22.045     0.001     93.26
   MnCl3-          2.065e-24   1.842e-24   -23.685   -23.735    -0.050     43.27
   CuCl3-2         5.622e-26   3.561e-26   -25.250   -25.448    -0.198     (0)  
   CuCl2           4.760e-26   4.774e-26   -25.322   -25.321     0.001     36.21
   ZnCl3-          6.053e-27   5.380e-27   -26.218   -26.269    -0.051     17.38
   FeCl+           4.340e-31   3.861e-31   -30.362   -30.413    -0.051     (0)  
   ZnCl4-2         2.283e-31   1.446e-31   -30.641   -30.840    -0.198    146.10
   CuCl3-          1.071e-32   9.515e-33   -31.970   -32.022    -0.051     (0)  
   FeCl+2          1.916e-38   1.214e-38   -37.718   -37.916    -0.198     (0)  
   CuCl4-2         4.339e-39   2.749e-39   -38.363   -38.561    -0.198     (0)  
   FeCl2+          0.000e+00   0.000e+00   -41.568   -41.618    -0.050     (0)  
   FeCl3           0.000e+00   0.000e+00   -46.906   -46.905     0.001     (0)  
Cu(1)         5.797e-19
   Cu+             5.793e-19   5.117e-19   -18.237   -18.291    -0.054     (0)  
   CuCl2-          4.805e-22   4.271e-22   -21.318   -21.369    -0.051     (0)  
   CuCl3-2         5.622e-26   3.561e-26   -25.250   -25.448    -0.198     (0)  
Cu(2)         7.285e-08
   Cu(OH)2         6.955e-08   6.976e-08    -7.158    -7.156     0.001     (0)  
[...]

**For a gas, SI = log10(fugacity). Fugacity = pressure * phi / 1 atm.
  For ideal gases, phi = 1.

-----------------------------------------
Beginning of batch-reaction calculations.
-----------------------------------------

Reaction step 1.

WARNING: Maximum iterations exceeded, 100

WARNING: Numerical method failed with this set of convergence parameters.

WARNING: Trying smaller step size, pe step size 10, 5 ... 

Using solution 20.	 5WBRG2  
Using pure phase assemblage 20.	

-------------------------------Phase assemblage--------------------------------

                                                      Moles in assemblage
Phase               SI  log IAP  log K(T, P)   Initial       Final       Delta

Aragonite        -0.14    -8.51     -8.37    0.000e+00           0   0.000e+00
CO2(g)           -3.50    -5.03     -1.53    1.000e+01   9.996e+00  -4.206e-03
Calcite           0.00    -8.51     -8.51    0.000e+00   1.778e-03   1.778e-03
Dolomite         -3.58   -20.80    -17.21    0.000e+00           0   0.000e+00
Gibbsite          0.00     7.82      7.82    0.000e+00   4.841e-04   4.841e-04
Goethite         -0.00    -1.19     -1.19    0.000e+00   5.666e-10   5.666e-10
Kaolinite        -1.30     5.68      6.98    0.000e+00           0   0.000e+00
Pyrolusite       -0.00    40.55     40.55    0.000e+00   8.370e-10   8.370e-10
Rhodochrosite    -7.29   -18.44    -11.15    0.000e+00           0   0.000e+00
Siderite        -17.68   -28.60    -10.92    0.000e+00           0   0.000e+00

-----------------------------Solution composition------------------------------

	Elements           Molality       Moles

	Al                2.612e-06   2.612e-06
	C                 2.428e-03   2.428e-03
	Ca                7.541e-05   7.542e-05
	Cl                4.147e-05   4.147e-05
	Cu                7.610e-08   7.610e-08
	F                 2.625e-05   2.625e-05
	Fe                5.996e-14   5.997e-14
	K                 5.563e-06   5.563e-06
	Mg                1.230e-08   1.230e-08
	Mn                3.814e-14   3.814e-14
	N                 5.674e-05   5.675e-05
	Na                2.479e-03   2.479e-03
	Si                1.149e-05   1.149e-05
	Zn                1.205e-07   1.205e-07

----------------------------Description of solution----------------------------

                                       pH  =   8.698      Charge balance
                                       pe  =   9.976      Adjusted to redox equilibrium
      Specific Conductance (µS/cm,  30°C)  = 274
                          Density (g/cm³)  =   0.99571
                               Volume (L)  =   1.00456
                        Activity of water  =   1.000
                 Ionic strength (mol/kgw)  =   2.755e-03
                       Mass of water (kg)  =   1.000e+00
                 Total alkalinity (eq/kg)  =   2.519e-03
                       Total CO2 (mol/kg)  =   2.428e-03
                         Temperature (°C)  =  30.30
                  Electrical balance (eq)  =  -1.101e-13
 Percent error, 100*(Cat-|An|)/(Cat+|An|)  =  -0.00
                               Iterations  =  34
                                  Total H  = 1.110185e+02
                                  Total O  = 5.551557e+01

----------------------------Distribution of species----------------------------

                                               Log       Log       Log    mole V
   Species          Molality    Activity  Molality  Activity     Gamma   cm³/mol

   OH-             7.937e-06   7.485e-06    -5.100    -5.126    -0.025     -3.92
   H+              2.115e-09   2.004e-09    -8.675    -8.698    -0.023      0.00
   H2O             5.551e+01   9.999e-01     1.744    -0.000     0.000     18.10
Al            2.612e-06
   Al(OH)4-        2.609e-06   2.463e-06    -5.583    -5.609    -0.025     (0)  
   Al(OH)3         2.417e-09   2.418e-09    -8.617    -8.617     0.000     (0)  
   Al(OH)2+        2.392e-11   2.260e-11   -10.621   -10.646    -0.025     (0)  
   AlOH+2          4.636e-15   3.692e-15   -14.334   -14.433    -0.099    -27.89
   AlF2+           1.822e-15   1.721e-15   -14.740   -14.764    -0.025     (0)  
   AlF3            5.382e-16   5.385e-16   -15.269   -15.269     0.000     (0)  
   AlF+2           1.697e-16   1.352e-16   -15.770   -15.869    -0.099     (0)  
   AlF4-           5.623e-18   5.307e-18   -17.250   -17.275    -0.025     (0)  
   Al+3            8.602e-19   5.298e-19   -18.065   -18.276    -0.210    -42.51
C(-4)         0.000e+00
   CH4             0.000e+00   0.000e+00  -130.741  -130.741     0.000     35.89
C(4)          2.428e-03
   HCO3-           2.333e-03   2.204e-03    -2.632    -2.657    -0.025     25.05
   CO3-2           7.153e-05   5.697e-05    -4.145    -4.244    -0.099     -4.89
   CO2             9.372e-06   9.378e-06    -5.028    -5.028     0.000     34.69
   CaCO3           5.802e-06   5.806e-06    -5.236    -5.236     0.000    -14.58
   NaCO3-          3.413e-06   3.220e-06    -5.467    -5.492    -0.025     -0.59
   NaHCO3          2.807e-06   2.809e-06    -5.552    -5.551     0.000      1.80
   CaHCO3+         1.728e-06   1.633e-06    -5.762    -5.787    -0.024      9.87
   Zn(CO3)2-2      6.122e-08   4.852e-08    -7.213    -7.314    -0.101     (0)  
   ZnCO3           3.981e-08   3.984e-08    -7.400    -7.400     0.000     (0)  
   CuCO3           4.201e-09   4.204e-09    -8.377    -8.376     0.000     (0)  
   ZnHCO3+         1.031e-09   9.724e-10    -8.987    -9.012    -0.025     (0)  
   MgCO3           5.386e-10   5.389e-10    -9.269    -9.268     0.000    -17.09
   Cu(CO3)2-2      3.805e-10   3.015e-10    -9.420    -9.521    -0.101     (0)  
   MgHCO3+         2.565e-10   2.420e-10    -9.591    -9.616    -0.025      5.62
   CuHCO3+         1.609e-11   1.518e-11   -10.794   -10.819    -0.025     (0)  
   (CO2)2          1.912e-12   1.913e-12   -11.719   -11.718     0.000     69.38
   MnCO3           2.873e-14   2.875e-14   -13.542   -13.541     0.000     (0)  
   MnHCO3+         1.321e-15   1.248e-15   -14.879   -14.904    -0.025     (0)  
   FeCO3           5.974e-25   5.978e-25   -24.224   -24.223     0.000     (0)  
   FeHCO3+         1.022e-25   9.641e-26   -24.991   -25.016    -0.025     (0)  
Ca            7.541e-05
   Ca+2            6.788e-05   5.404e-05    -4.168    -4.267    -0.099    -18.03
   CaCO3           5.802e-06   5.806e-06    -5.236    -5.236     0.000    -14.58
   CaHCO3+         1.728e-06   1.633e-06    -5.762    -5.787    -0.024      9.87
   CaOH+           4.742e-09   4.474e-09    -8.324    -8.349    -0.025     (0)  
Cl            4.147e-05
   Cl-             4.147e-05   3.911e-05    -4.382    -4.408    -0.025     18.21
   ZnOHCl          2.263e-12   2.264e-12   -11.645   -11.645     0.000     (0)  
   ZnCl+           4.920e-13   4.642e-13   -12.308   -12.333    -0.025     -9.06
   CuCl+           1.979e-15   1.867e-15   -14.704   -14.729    -0.025     -0.62
   ZnCl2           1.940e-17   1.941e-17   -16.712   -16.712     0.000     92.41
   MnCl+           1.072e-18   1.012e-18   -17.970   -17.995    -0.025     -1.91
   CuCl2           4.146e-20   4.148e-20   -19.382   -19.382     0.000     36.71
   ZnCl3-          9.317e-22   8.791e-22   -21.031   -21.056    -0.025     17.44
   CuCl2-          4.055e-22   3.825e-22   -21.392   -21.417    -0.025     (0)  
   MnCl2           1.727e-23   1.728e-23   -22.763   -22.762     0.000     79.85
   CuCl3-2         3.042e-26   2.419e-26   -25.517   -25.616    -0.099     (0)  
   ZnCl4-2         2.258e-26   1.796e-26   -25.646   -25.746    -0.099    145.87
   CuCl3-          6.692e-27   6.314e-27   -26.174   -26.200    -0.025     (0)  
   MnCl3-          1.972e-28   1.862e-28   -27.705   -27.730    -0.025     43.16
   FeCl+           2.503e-29   2.362e-29   -28.601   -28.627    -0.025     (0)  
   FeCl+2          9.207e-31   7.322e-31   -30.036   -30.135    -0.099     (0)  
   CuCl4-2         1.756e-33   1.396e-33   -32.756   -32.855    -0.099     (0)  
   FeCl2+          1.149e-34   1.085e-34   -33.940   -33.965    -0.025     (0)  
   FeCl3           4.240e-40   4.242e-40   -39.373   -39.372     0.000     (0)  
Cu(1)         8.501e-19
   Cu+             8.497e-19   8.005e-19   -18.071   -18.097    -0.026     (0)  
   CuCl2-          4.055e-22   3.825e-22   -21.392   -21.417    -0.025     (0)  
   CuCl3-2         3.042e-26   2.419e-26   -25.517   -25.616    -0.099     (0)  
Cu(2)         7.610e-08
   Cu(OH)2         7.141e-08   7.145e-08    -7.146    -7.146     0.000     (0)  
   CuCO3           4.201e-09   4.204e-09    -8.377    -8.376     0.000     (0)  
   Cu(CO3)2-2      3.805e-10   3.015e-10    -9.420    -9.521    -0.101     (0)  
   CuOH+           7.266e-11   6.855e-11   -10.139   -10.164    -0.025     (0)  
   Cu+2            1.722e-11   1.374e-11   -10.764   -10.862    -0.098    -26.61
   CuHCO3+         1.609e-11   1.518e-11   -10.794   -10.819    -0.025     (0)  
   Cu(OH)3-        2.276e-12   2.148e-12   -11.643   -11.668    -0.025     (0)  
   CuF+            6.873e-15   6.485e-15   -14.163   -14.188    -0.025     (0)  
   Cu2(OH)2+2      4.351e-15   3.448e-15   -14.361   -14.462    -0.101     (0)  
   CuCl+           1.979e-15   1.867e-15   -14.704   -14.729    -0.025     -0.62
   Cu(OH)4-2       2.698e-16   2.138e-16   -15.569   -15.670    -0.101     (0)  
   CuCl2           4.146e-20   4.148e-20   -19.382   -19.382     0.000     36.71
   CuCl3-          6.692e-27   6.314e-27   -26.174   -26.200    -0.025     (0)  
   CuCl4-2         1.756e-33   1.396e-33   -32.756   -32.855    -0.099     (0)  
F             2.625e-05
   F-              2.622e-05   2.473e-05    -4.581    -4.607    -0.025     -1.27
   NaF             3.319e-08   3.321e-08    -7.479    -7.479     0.000      7.45
   HF              8.180e-11   8.185e-11   -10.087   -10.087     0.000     12.72
   MgF+            1.738e-11   1.640e-11   -10.760   -10.785    -0.025    -10.58
   ZnF+            1.385e-12   1.307e-12   -11.859   -11.884    -0.025     (0)  
   HF2-            8.546e-15   8.063e-15   -14.068   -14.093    -0.025     22.29
   CuF+            6.873e-15   6.485e-15   -14.163   -14.188    -0.025     (0)  
   AlF2+           1.822e-15   1.721e-15   -14.740   -14.764    -0.025     (0)  
   AlF3            5.382e-16   5.385e-16   -15.269   -15.269     0.000     (0)  
   AlF+2           1.697e-16   1.352e-16   -15.770   -15.869    -0.099     (0)  
   AlF4-           5.623e-18   5.307e-18   -17.250   -17.275    -0.025     (0)  
   MnF+            1.151e-18   1.087e-18   -17.939   -17.964    -0.025     (0)  
   FeF+2           2.804e-26   2.230e-26   -25.552   -25.652    -0.099     (0)  
   FeF2+           2.473e-26   2.335e-26   -25.607   -25.632    -0.025     (0)  
   FeF3            9.309e-28   9.315e-28   -27.031   -27.031     0.000     (0)  
   FeF+            1.146e-28   1.082e-28   -27.941   -27.966    -0.025     (0)  
   SiF6-2          4.570e-38   3.634e-38   -37.340   -37.440    -0.099     42.92
Fe(2)         1.356e-24
   FeCO3           5.974e-25   5.978e-25   -24.224   -24.223     0.000     (0)  
   Fe+2            5.481e-25   4.374e-25   -24.261   -24.359    -0.098    -21.77
   FeOH+           1.078e-25   1.018e-25   -24.967   -24.992    -0.025     (0)  
   FeHCO3+         1.022e-25   9.641e-26   -24.991   -25.016    -0.025     (0)  
   Fe(OH)2         6.797e-28   6.802e-28   -27.168   -27.167     0.000     (0)  
   FeF+            1.146e-28   1.082e-28   -27.941   -27.966    -0.025     (0)  
   FeCl+           2.503e-29   2.362e-29   -28.601   -28.627    -0.025     (0)  
   Fe(OH)3-        1.405e-29   1.327e-29   -28.852   -28.877    -0.025     (0)  
Fe(3)         5.996e-14
   Fe(OH)3         3.731e-14   3.733e-14   -13.428   -13.428     0.000     (0)  
   Fe(OH)4-        2.217e-14   2.094e-14   -13.654   -13.679    -0.025     (0)  
   Fe(OH)2+        4.900e-16   4.629e-16   -15.310   -15.334    -0.025     (0)  
   FeOH+2          2.892e-21   2.300e-21   -20.539   -20.638    -0.099     (0)  
   FeF+2           2.804e-26   2.230e-26   -25.552   -25.652    -0.099     (0)  
   FeF2+           2.473e-26   2.335e-26   -25.607   -25.632    -0.025     (0)  
   FeF3            9.309e-28   9.315e-28   -27.031   -27.031     0.000     (0)  
   Fe+3            8.532e-28   5.255e-28   -27.069   -27.279    -0.210     (0)  
   FeCl+2          9.207e-31   7.322e-31   -30.036   -30.135    -0.099     (0)  
   FeCl2+          1.149e-34   1.085e-34   -33.940   -33.965    -0.025     (0)  
   FeCl3           4.240e-40   4.242e-40   -39.373   -39.372     0.000     (0)  
   Fe2(OH)2+4      2.911e-40   1.148e-40   -39.536   -39.940    -0.404     (0)  
   Fe3(OH)4+5      0.000e+00   0.000e+00   -52.532   -53.163    -0.631     (0)  
H(0)          0.000e+00
   H2              0.000e+00   0.000e+00   -40.520   -40.520     0.000     28.60
K             5.563e-06
   K+              5.563e-06   5.247e-06    -5.255    -5.280    -0.025      9.18
Mg            1.230e-08
   Mg+2            1.146e-08   9.138e-09    -7.941    -8.039    -0.098    -21.95
   MgCO3           5.386e-10   5.389e-10    -9.269    -9.268     0.000    -17.09
   MgHCO3+         2.565e-10   2.420e-10    -9.591    -9.616    -0.025      5.62
   MgOH+           2.801e-11   2.649e-11   -10.553   -10.577    -0.024     (0)  
   MgF+            1.738e-11   1.640e-11   -10.760   -10.785    -0.025    -10.58
Mn(2)         3.814e-14
   MnCO3           2.873e-14   2.875e-14   -13.542   -13.541     0.000     (0)  
   Mn+2            7.959e-15   6.352e-15   -14.099   -14.197    -0.098    -20.49
   MnHCO3+         1.321e-15   1.248e-15   -14.879   -14.904    -0.025     (0)  
   MnOH+           1.319e-16   1.245e-16   -15.880   -15.905    -0.025     (0)  
   MnF+            1.151e-18   1.087e-18   -17.939   -17.964    -0.025     (0)  
   MnCl+           1.072e-18   1.012e-18   -17.970   -17.995    -0.025     -1.91
   Mn(NO3)2        7.145e-23   7.150e-23   -22.146   -22.146     0.000     39.72
   MnCl2           1.727e-23   1.728e-23   -22.763   -22.762     0.000     79.85
   Mn(OH)3-        1.324e-23   1.250e-23   -22.878   -22.903    -0.025     (0)  
   MnCl3-          1.972e-28   1.862e-28   -27.705   -27.730    -0.025     43.16
Mn(3)         6.448e-30
   Mn+3            6.448e-30   3.972e-30   -29.191   -29.401    -0.210     (0)  
N(-3)         0.000e+00
   NH4+            0.000e+00   0.000e+00   -54.350   -54.376    -0.026     18.12
   NH3             0.000e+00   0.000e+00   -54.763   -54.762     0.000     24.60
N(0)          5.100e-10
   N2              2.550e-10   2.551e-10    -9.593    -9.593     0.000     29.29
N(3)          2.607e-14
   NO2-            2.607e-14   2.457e-14   -13.584   -13.610    -0.026     25.22
N(5)          5.674e-05
   NO3-            5.674e-05   5.348e-05    -4.246    -4.272    -0.026     29.97
   Mn(NO3)2        7.145e-23   7.150e-23   -22.146   -22.146     0.000     39.72
Na            2.479e-03
   Na+             2.473e-03   2.334e-03    -2.607    -2.632    -0.025     -1.19
   NaCO3-          3.413e-06   3.220e-06    -5.467    -5.492    -0.025     -0.59
   NaHCO3          2.807e-06   2.809e-06    -5.552    -5.551     0.000      1.80
   NaF             3.319e-08   3.321e-08    -7.479    -7.479     0.000      7.45
   NaOH            1.746e-18   1.747e-18   -17.758   -17.758     0.000     (0)  
O(0)          4.380e-10
   O2              2.190e-10   2.191e-10    -9.660    -9.659     0.000     30.79
Si            1.149e-05
   H4SiO4          1.051e-05   1.051e-05    -4.979    -4.978     0.000     51.66
   H3SiO4-         9.795e-07   9.241e-07    -6.009    -6.034    -0.025     28.09
   H2SiO4-2        5.502e-11   4.382e-11   -10.259   -10.358    -0.099     (0)  
   SiF6-2          4.570e-38   3.634e-38   -37.340   -37.440    -0.099     42.92
Zn            1.205e-07
   Zn(CO3)2-2      6.122e-08   4.852e-08    -7.213    -7.314    -0.101     (0)  
   ZnCO3           3.981e-08   3.984e-08    -7.400    -7.400     0.000     (0)  
   Zn(OH)2         1.097e-08   1.098e-08    -7.960    -7.959     0.000     (0)  
   Zn+2            4.407e-09   3.505e-09    -8.356    -8.455    -0.099    -25.64
   ZnOH+           3.016e-09   2.846e-09    -8.521    -8.546    -0.025     (0)  
   ZnHCO3+         1.031e-09   9.724e-10    -8.987    -9.012    -0.025     (0)  
   Zn(OH)3-        1.836e-11   1.732e-11   -10.736   -10.761    -0.025     (0)  
   ZnOHCl          2.263e-12   2.264e-12   -11.645   -11.645     0.000     (0)  
   ZnF+            1.385e-12   1.307e-12   -11.859   -11.884    -0.025     (0)  
   ZnCl+           4.920e-13   4.642e-13   -12.308   -12.333    -0.025     -9.06
   Zn(OH)4-2       1.728e-15   1.370e-15   -14.762   -14.863    -0.101     (0)  
   ZnCl2           1.940e-17   1.941e-17   -16.712   -16.712     0.000     92.41
   ZnCl3-          9.317e-22   8.791e-22   -21.031   -21.056    -0.025     17.44
   ZnCl4-2         2.258e-26   1.796e-26   -25.646   -25.746    -0.099    145.87

------------------------------Saturation indices-------------------------------

  Phase               SI** log IAP   log K(303 K,   1 atm)

  Al(OH)3(a)       -2.64      7.82   10.46  Al(OH)3
  Albite           -5.50    -23.17  -17.67  NaAlSi3O8
  Anorthite        -5.87    -25.44  -19.57  CaAl2Si2O8
  Aragonite        -0.14     -8.51   -8.37  CaCO3
  Ca-Montmorillonite  -5.16    -49.44  -44.28  Ca0.165Al2.33Si3.67O10(OH)2
  Calcite           0.00     -8.51   -8.51  CaCO3
  CH4(g)         -127.89   -130.74   -2.85  CH4
  Chalcedony       -1.49     -4.98   -3.49  SiO2
  Chlorite(14A)   -18.95     47.49   66.44  Mg5Al2Si3O10(OH)8
  Chrysotile      -13.44     18.11   31.56  Mg3Si2O5(OH)4
  CO2(g)           -3.50     -5.03   -1.53  CO2	 Pressure   0.0 atm, phi 1.000
  Dolomite         -3.58    -20.80  -17.21  CaMg(CO3)2
  Fe(OH)3(a)       -6.08     -1.19    4.89  Fe(OH)3
  Fluorite         -2.94    -13.48  -10.54  CaF2
  Gibbsite          0.00      7.82    7.82  Al(OH)3
  Goethite         -0.00     -1.19   -1.19  FeOOH
  H2(g)           -37.41    -40.52   -3.11  H2
  H2O(g)           -1.37     -0.00    1.37  H2O
  Halite           -8.61     -7.04    1.57  NaCl
  Hausmannite     -12.80     46.94   59.74  Mn3O4
  Hematite          2.03     -2.37   -4.40  Fe2O3
  Illite           -6.37    -45.94  -39.57  K0.6Mg0.25Al2.3Si3.5O10(OH)2
  K-feldspar       -5.64    -25.82  -20.18  KAlSi3O8
  K-mica           -0.01     11.94   11.94  KAl3Si3O10(OH)2
  Kaolinite        -1.30      5.68    6.98  Al2Si2O5(OH)4
  Manganite        -3.47     21.87   25.34  MnOOH
  N2(g)            -6.39     -9.59   -3.21  N2
  NH3(g)          -56.45    -54.76    1.69  NH3
  O2(g)            -6.73     -9.66   -2.93  O2
  Pyrochroite     -12.00      3.20   15.20  Mn(OH)2
  Pyrolusite       -0.00     40.55   40.55  MnO2:H2O
  Quartz           -1.07     -4.98   -3.90  SiO2
  Rhodochrosite    -7.29    -18.44  -11.15  MnCO3
  Sepiolite       -11.84      3.78   15.62  Mg2Si3O7.5OH:3H2O
  Sepiolite(d)    -14.88      3.78   18.66  Mg2Si3O7.5OH:3H2O
  Siderite        -17.68    -28.60  -10.92  FeCO3
  SiO2(a)          -2.31     -4.98   -2.67  SiO2
  Smithsonite      -2.64    -12.70  -10.06  ZnCO3
  Sylvite         -10.61     -9.69    0.93  KCl
  Talc            -12.65      8.16   20.81  Mg3Si4O10(OH)2
  Willemite        -2.00     12.90   14.90  Zn2SiO4
  Zn(OH)2(e)       -2.56      8.94   11.50  Zn(OH)2

**For a gas, SI = log10(fugacity). Fugacity = pressure * phi / 1 atm.
  For ideal gases, phi = 1.

------------------
End of simulation.
------------------

------------------------------------
Reading input data for simulation 4.
------------------------------------

-------------------------------
End of Run after 0.962 Seconds.
-------------------------------

